* Copyright (c) 2000-2020 Linear Technology Corporation.   All rights reserved.
*
.model 2N242 PNP (IS=524N NF=1 BF=156 VAF=106 IKF=3 ISE=330N NE=2 BR=4 NR=1 VAR=40 IKR=4.5 RE=.190 RB=.763 RC=76.3M XTB=1.5 CJE=1.07N CJC=315P TF=1.5U TR=3u Vceo=35 Icrating=5 MFG=Germanium-type)
.model 2N344 PNP (Is=1E-10 BF=11 VAF=15 CJE=5p CJC=2.5p TF=3n EG=.67 RB=100 RE=10)
.model 2N507 NPN (IS=6.734f ISE=6.734f ISC=0 XTI=3 BF=254.1 BR=2.683 IKF=0.1962 IKR=0 XTB=1.5 VAF=45.7 VAR=15 VJE=0.65 VJC=0.65 RE=0.15 RC=1.67 RB=10 CJE=7.5p CJC=6.2p XCJC=0.75 FC=0.5 NF=1 NR=1 NE=1.741 NC=2 MJE=0.2861 MJC=0.301 TF=467.8p TR=10.1n ITF=0.17 VTF=5 XTF=8 EG=1.11 VCEO=40 ICRATING=100m MFG=NSC)
.model 2N696 NPN (Is=14.34f Xti=3 Eg=1.11 Vaf=74.03 Bf=65.62 Ne=1.208 Ise=19.48f Ikf=.2385 Xtb=1.5 Br=9.715 Nc=2 Isc=0 Ikr=0 Rc=1 Cjc=9.393p Mjc=.3416 Vjc=.75 Fc=.5 Cje=22.01p Mje=.377 Vje=.75 Tr=58.98n Tf=408.8p Itf=.6 Vtf=1.7 Xtf=3 Rb=10)
.model 2N697 NPN (IS=7.370E-14 BF=7.432E+01 NF=1 VAF=2.838E+02 IKF=8.500E-01 ISE=3.713E-14 NE=1.303 BR=1.983 NR=1.033 VAR=4.811E+01 IKR=1.494E-02 ISC=9.322E-13 NC=1.205 IRB=1.000E-04 RE=1.641 RC=4.971 CJE=8.523E-11 VJE=7.288E-01 MJE=3.415E-01 TF=1.383n XTF=5.975E+01 VTF=3.900E-01 ITF=4.746E-01 PTF=0 CJC=2.684E-11 VJC=5.359E-01 MJC=3.748E-01 TR=1.714E-07 XTB=1.5 EG=1.11 XTI=3.0 FC=0.5)
.model 2N706 NPN (Is=44.14f Xti=3 Eg=1.11 Vaf=100 Bf=48.71 Ne=1.385 Ise=142.5f Ikf=.3452 Xtb=1.5 Br=14.28m Nc=2 Isc=0 Ikr=0 Rc=.6 Cjc=2.83p Mjc=86.19m Vjc=.75 Fc=.5 Cje=4.5p Mje=.2418 Vje=.75 Tr=1.129u Tf=227.6p Itf=.3 Vtf=4 Xtf=4 Rb=10)
.model 2N708 NPN (Is=1.017f Xti=3 Eg=1.11 Vaf=100 Bf=93.51 Ne=2.048 Ise=31.36p Ikf=.2617 Xtb=1.5 Br=3.509 Nc=2 Isc=0 Ikr=0 Rc=1.75 Cjc=4.256p Mjc=.1053 Vjc=.75 Fc=.5 Cje=8.359p Mje=.3504 Vje=.75 Tr=5.263n Tf=289.3p Itf=.35 Vtf=5 Xtf=2 Rb=10)
.model 2N718 NPN (Is=14.34f Xti=3 Eg=1.11 Vaf=74.03 Bf=118.6 Ne=1.236 Ise=14.34f Ikf=.2524 Xtb=1.5 Br=7.134 Nc=2 Isc=0 Ikr=0 Rc=1 Cjc=9.393p Mjc=.3416 Vjc=.75 Fc=.5 Cje=22.01p Mje=.377 Vje=.75 Tr=50.96n Tf=409.2p Itf=.6 Vtf=1.7 Xtf=3 Rb=10)
.model 2N718A NPN (Is=14.34f Xti=3 Eg=1.11 Vaf=74.03 Bf=118.6 Ne=1.236 Ise=14.34f Ikf=.2524 Xtb=1.5 Br=7.134 Nc=2 Isc=0 Ikr=0 Rc=1 Cjc=9.393p Mjc=.3416 Vjc=.75 Fc=.5 Cje=22.01p Mje=.377 Vje=.75 Tr=50.96n Tf=409.2p Itf=.6 Vtf=1.7 Xtf=3 Rb=10)
.model 2N722 NPN (Is=650.6E-18 Xti=3 Eg=1.11 Vaf=115.7 Bf=70.35 Ne=1.829 Ise=180.5f Ikf=1.079 Xtb=1.5 Br=4.146 Nc=2 Isc=0 Ikr=0 Rc=.715 Cjc=29.52p Mjc=.5383 Vjc=.75 Fc=.5 Cje=19.82p Mje=.3357 Vje=.75 Tr=119.9n Tf=757.7p Itf=.65 Vtf=5 Xtf=1.7 Rb=10)
.model 2N743 NPN (Is=44.14f Xti=3 Eg=1.11 Vaf=100 Bf=39.16 Ne=1.389 Ise=183.9f Ikf=.3498 Xtb=1.5 Br=15.51m Nc=2 Isc=0 Ikr=0 Rc=.6 Cjc=2.83p Mjc=86.19m Vjc=.75 Fc=.5 Cje=4.5p Mje=.2418 Vje=.75 Tr=1.163u Tf=227.6p Itf=.3 Vtf=4 Xtf=4 Rb=10)
.model 2N744 NPN (Is=44.14f Xti=3 Eg=1.11 Vaf=100 Bf=78.32 Ne=1.389 Ise=91.95f Ikf=.3498 Xtb=1.5 Br=12.69m Nc=2 Isc=0 Ikr=0 Rc=.6 Cjc=2.83p Mjc=86.19m Vjc=.75 Fc=.5 Cje=4.5p Mje=.2418 Vje=.75 Tr=1.073u Tf=227.6p Itf=.3 Vtf=4 Xtf=4 Rb=10)
.model 2N753 NPN (Is=44.14f Xti=3 Eg=1.11 Vaf=100 Bf=78.32 Ne=1.389 Ise=91.95f Ikf=.3498 Xtb=1.5 Br=12.69m Nc=2 Isc=0 Ikr=0 Rc=.6 Cjc=2.83p Mjc=86.19m Vjc=.75 Fc=.5 Cje=4.5p Mje=.2418 Vje=.75 Tr=1.073u Tf=227.6p Itf=.3 Vtf=4 Xtf=4 Rb=10)
.model 2N760 NPN (Is=5.911f Xti=3 Eg=1.11 Vaf=62.37 Bf=393.6 Ne=1.271 Ise=5.911f Ikf=12.43m Xtb=1.5 Br=1.372 Nc=2 Isc=0 Ikr=0 Rc=1.61 Cjc=4.017p Mjc=.3174 Vjc=.75 Fc=.5 Cje=4.973p Mje=.4146 Vje=.75 Tr=4.761n Tf=818.2p Itf=.35 Vtf=4 Xtf=7 Rb=10)
.model 2N760A NPN (Is=5.911f Xti=3 Eg=1.11 Vaf=62.37 Bf=403.5 Ne=1.275 Ise=5.911f Ikf=12.52m Xtb=1.5 Br=1.366 Nc=2 Isc=0 Ikr=0 Rc=1.61 Cjc=4.017p Mjc=.3174 Vjc=.75 Fc=.5 Cje=4.973p Mje=.4146 Vje=.75 Tr=4.754n Tf=818.3p Itf=.35 Vtf=4 Xtf=7 Rb=10)
.model 2N834 NPN (Is=44.14f Xti=3 Eg=1.11 Vaf=100 Bf=56.13 Ne=1.372 Ise=110.1f Ikf=.3355 Xtb=1.5 Br=13.71m Nc=2 Isc=0 Ikr=0 Rc=.6 Cjc=2.83p Mjc=86.19m Vjc=.75 Fc=.5 Cje=4.5p Mje=.2418 Vje=.75 Tr=1.111u Tf=227.6p Itf=.3 Vtf=4 Xtf=4 Rb=10)
.model 2N869 PNP (Is=867.6E-18 Xti=3 Eg=1.11 Vaf=100 Bf=54.93 Ne=2.064 Ise=347f Ikf=.1459 Xtb=1.5 Br=.8643 Nc=2 Isc=0 Ikr=0 Rc=1.75 Cjc=4.524p Mjc=.2226 Vjc=.75 Fc=.5 Cje=5.881p Mje=.4345 Vje=.75 Tr=18.65n Tf=160.8p Itf=.6 Vtf=3 Xtf=1.5 Rb=10)
.model 2N869A PNP (Is=867.6E-18 Xti=3 Eg=1.11 Vaf=100 Bf=81.33 Ne=2.035 Ise=199.5f Ikf=.1441 Xtb=1.5 Br=.8006 Nc=2 Isc=0 Ikr=0 Rc=1.75 Cjc=4.524p Mjc=.2226 Vjc=.75 Fc=.5 Cje=5.881p Mje=.4345 Vje=.75 Tr=18n Tf=160.8p Itf=.6 Vtf=3 Xtf=1.5 Rb=10)
.model 2N914 NPN (Is=498.7f Xti=3 Eg=1.11 Vaf=100 Bf=97.11 Ne=4.644 Ise=195.4n Ikf=33.96m Xtb=1.5 Br=5.485m Nc=2 Isc=0 Ikr=0 Rc=1.5 Cjc=2.937p Mjc=99.99m Vjc=.75 Fc=.5 Cje=3.184p Mje=.3171 Vje=.75 Tr=2.511u Tf=385.5p Itf=0 Vtf=0 Xtf=0 Rb=10)
.model 2N915 NPN (Is=6.734f Xti=3 Eg=1.11 Vaf=74.03 Bf=341.6 Ne=1.221 Ise=6.734f Ikf=61.79m Xtb=1.5 Br=.7826 Nc=2 Isc=0 Ikr=0 Rc=1 Cjc=3.118p Mjc=.3086 Vjc=.75 Fc=.5 Cje=4.493p Mje=.2593 Vje=.75 Tr=242.5n Tf=301.3p Itf=.4 Vtf=4 Xtf=2 Rb=10)
.model 2N916 NPN (Is=6.734f Xti=3 Eg=1.11 Vaf=74.03 Bf=336.4 Ne=1.218 Ise=6.734f Ikf=61.58m Xtb=1.5 Br=.7883 Nc=2 Isc=0 Ikr=0 Rc=1 Cjc=3.638p Mjc=.3085 Vjc=.75 Fc=.5 Cje=4.493p Mje=.2593 Vje=.75 Tr=242.8n Tf=300.9p Itf=.4 Vtf=4 Xtf=2 Rb=10)
.model 2N918 NPN (IS=5.08E-15 NF=1.0 BF=104 VAF=70 IKF=3.0E-02 ISE=4.88E-12 NE=2.0 BR=4 NR=1.0 VAR=12 XTB=1.5 RE=1.8E+01 RB=7.3E+01 RC=7.3E+00 CJE=2.4E-12 CJC=3.0E-12 TF=2.3E-10 TR=2.1E-08)
.model 2N929 NPN (Is=5.911f Xti=3 Eg=1.11 Vaf=62.37 Bf=345.4 Ne=1.247 Ise=5.911f Ikf=11.87m Xtb=1.5 Br=1.419 Nc=2 Isc=0 Ikr=0 Rc=1.61 Cjc=4.017p Mjc=.3174 Vjc=.75 Fc=.5 Cje=4.973p Mje=.4146 Vje=.75 Tr=4.813n Tf=817.2p Itf=.35 Vtf=4 Xtf=7 Rb=10)
.model 2N930 NPN (IS=5.911f ISE=5.911f ISC=0 XTI=3 BF=578.3 BR=1.313 IKF=13.5m IKR=0 XTB=1.5 VAF=62.37 VAR=21.5 VJE=0.65 VJC=0.65 RE=0.15 RC=1.61 RB=10 CJE=4.973p CJC=4.017p XCJC=0.75 FC=0.5 NF=1 NR=1 NE=1.32 NC=2 MJE=0.4146 MJC=0.3174 TF=819.8p TR=4.701n ITF=0.35 VTF=4 XTF=7 EG=1.11 VCEO=45 ICRATING=30m MFG=NSC)
.model 2N956 NPN (Is=14.34f Xti=3 Eg=1.11 Vaf=74.03 Bf=255.9 Ne=1.307 Ise=14.34f Ikf=.2847 Xtb=1.5 Br=6.092 Nc=2 Isc=0 Ikr=0 Rc=1 Cjc=9.393p Mjc=.3416 Vjc=.75 Fc=.5 Cje=22.01p Mje=.377 Vje=.75 Tr=46.91n Tf=410p Itf=.6 Vtf=1.7 Xtf=3 Rb=10)
.model 2N995 PNP (Is=867.6E-18 Xti=3 Eg=1.11 Vaf=100 Bf=80.2 Ne=2.057 Ise=228.9f Ikf=.1459 Xtb=1.5 Br=.8022 Nc=2 Isc=0 Ikr=0 Rc=1.75 Cjc=4.524p Mjc=.2226 Vjc=.75 Fc=.5 Cje=5.881p Mje=.4345 Vje=.75 Tr=18.02n Tf=160.8p Itf=.6 Vtf=3 Xtf=1.5 Rb=10)
.model 2N1132 PNP (IS=9.99916F BF=55.9464 NF=998.061M VAF=100 IKF=9.98401K ISE=3.62279F NE=1.10688 BR=1.55171 IKR=9.99993M ISC=106.162P RE=3.44553 RC=5.64395 CJE=104.717P VJE=700.004M MJE=499.511M CJC=175.838P VJC=699.998M MJC=499.794M TF=2.66025N XTF=500.005M VTF=10 ITF=9.68022M TR=10N)
.model 2N1132A PNP (Is=3.919f Xti=3 Eg=1.11 Vaf=100 Bf=65.87 Ne=1.5 Ise=0 Ikf=.25 Xtb=1.5 Br=32.63 Nc=2 Isc=0 Ikr=0 Rc=1.1 Cjc=21.54p Mjc=.3575 Vjc=.75 Fc=.5 Cje=15.99p Mje=.5125 Vje=.75 Tr=12.88n Tf=1.124n Itf=.4 Vtf=6 Xtf=10 Rb=10)
.model 2N1420 NPN (Is=14.34f Xti=3 Eg=1.11 Vaf=74.03 Bf=255.9 Ne=1.307 Ise=14.34f Ikf=.2847 Xtb=1.5 Br=6.092 Nc=2 Isc=0 Ikr=0 Rc=1 Cjc=9.393p Mjc=.3416 Vjc=.75 Fc=.5 Cje=22.01p Mje=.377 Vje=.75 Tr=46.91n Tf=410p Itf=.6 Vtf=1.7 Xtf=3 Rb=10)
.model 2N1566 NPN (Is=14.34f Xti=3 Eg=1.11 Vaf=74.03 Bf=173.4 Ne=1.272 Ise=14.34f Ikf=.2689 Xtb=1.5 Br=6.458 Nc=2 Isc=0 Ikr=0 Rc=1 Cjc=9.393p Mjc=.3416 Vjc=.75 Fc=.5 Cje=22.01p Mje=.377 Vje=.75 Tr=48.39n Tf=409.7p Itf=.6 Vtf=1.7 Xtf=3 Rb=10)
.model 2N1613 NPN (Is=14.1f Xti=3 Eg=1.11 Vaf=100 Bf=88.85 Ne=1.5 Ise=0 Ikf=.75 Xtb=1.5 Br=5.591 Nc=2 Isc=0 Ikr=0 Rc=.7 Cjc=15.69p Mjc=.3603 Vjc=.75 Fc=.5 Cje=55.06p Mje=.1553 Vje=.75 Tr=854.5p Tf=1.332n Itf=1.6 Vtf=5 Xtf=55 Rb=10)
.model 2N1711 NPN (Is=14.1f Xti=3 Eg=1.11 Vaf=100 Bf=213.7 Ne=1.5 Ise=0 Ikf=.75 Xtb=1.5 Br=4.96 Nc=2 Isc=0 Ikr=0 Rc=.7 Cjc=15.69p Mjc=.3603 Vjc=.75 Fc=.5 Cje=55.06p Mje=.1553 Vje=.75 Tr=815.2p Tf=499.1p Itf=1 Vtf=5 Xtf=55 Rb=10)
.model 2N1893 NPN (Is=2.079f Xti=3 Eg=1.11 Vaf=100 Bf=167.2 Ise=24.36f Ne=1.357 Ikf=1.088 Nk=.8271 Xtb=1.5 Br=1.502 Isc=264.6f Nc=1.545 Ikr=.3028 Rc=.9069 Cjc=45.29p Mjc=.31 Vjc=.5 Fc=.5 Cje=58.12p Mje=.441 Vje=.5 Tr=1u Tf=738.1p Itf=2.376 Xtf=24.93 Vtf=10)
.model 2N2102 NPN (IS=1.1791e-10 BF=79.3546 NF=1.42901 VAF=30.134 IKF=0.640083 ISE=7.91563p NE=3.31476 BR=3.76239 NR=1.5 VAR=3.69384 IKR=2.76346 ISC=3.24999e-13 NC=3.96875 RB=0.1 IRB=0.1 RBM=0.1 RE=0.00431604 RC=0.38569 XTB=0.1 XTI=1 EG=1.05 CJE=1e-11 VJE=0.75 MJE=0.33 TF=1n XTF=1 VTF=10 ITF=0.01 CJC=1.3035e-11 VJC=0.62509 MJC=0.23 XCJC=0.9 FC=0.5 CJS=0 VJS=0.75 MJS=0.5 TR=1e-07 PTF=0)
.model 2N2193A NPN (Is=14.1f Xti=3 Eg=1.11 Vaf=100 Bf=88.85 Ne=1.5 Ise=0 Ikf=.75 Xtb=1.5 Br=5.591 Nc=2 Isc=0 Ikr=0 Rc=.7 Cjc=15.69p Mjc=.3603 Vjc=.75 Fc=.5 Cje=55.06p Mje=.1553 Vje=.75 Tr=34.18n Tf=808.1p Itf=1.2 Vtf=5 Xtf=55 Rb=10)
.model 2N2217 NPN (Is=3.108f Xti=3 Eg=1.11 Vaf=303.2 Bf=45.18 Ne=1.541 Ise=918.1f Ikf=1.296 Xtb=1.5 Br=16.28 Nc=2 Isc=0 Ikr=0 Rc=1 Cjc=14.57p Vjc=.75 Mjc=.3333 Fc=.5 Cje=26.08p Vje=.75 Mje=.3333 Tr=42.81n Tf=449.4p Itf=.1 Vtf=10 Xtf=2 Rb=10)
.model 2N2218 NPN (Is=14.34f Xti=3 Eg=1.11 Vaf=74.03 Bf=118.6 Ne=1.236 Ise=14.34f Ikf=.2524 Xtb=1.5 Br=7.134 Nc=2 Isc=0 Ikr=0 Rc=1 Cjc=7.306p Mjc=.3416 Vjc=.75 Fc=.5 Cje=22.01p Mje=.377 Vje=.75 Tr=50.96n Tf=410.3p Itf=.6 Vtf=1.7 Xtf=3 Rb=10)
.model 2N2218A NPN (Is=14.34f Xti=3 Eg=1.11 Vaf=74.03 Bf=118.6 Ne=1.236 Ise=14.34f Ikf=.2524 Xtb=1.5 Br=7.134 Nc=2 Isc=0 Ikr=0 Rc=1 Cjc=7.306p Mjc=.3416 Vjc=.75 Fc=.5 Cje=22.01p Mje=.377 Vje=.75 Tr=50.96n Tf=410.3p Itf=.6 Vtf=1.7 Xtf=3 Rb=10)
.model 2N2219 NPN (Is=14.34f Xti=3 Eg=1.11 Vaf=74.03 Bf=255.9 Ne=1.307 Ise=14.34f Ikf=.2847 Xtb=1.5 Br=6.092 Nc=2 Isc=0 Ikr=0 Rc=1 Cjc=7.306p Mjc=.3416 Vjc=.75 Fc=.5 Cje=22.01p Mje=.377 Vje=.75 Tr=46.91n Tf=411.1p Itf=.6 Vtf=1.7 Xtf=3 Rb=10 Vceo=40 Icrating=800m mfg=NXP)
.model 2N2219A NPN(Is=14.34f Xti=3 Eg=1.11 Vaf=74.03 Bf=255.9 Ne=1.307 Ise=14.34f Ikf=.2847 Xtb=1.5 Br=6.092 Nc=2 Isc=0 Ikr=0 Rc=1 Cjc=7.306p Mjc=.3416 Vjc=.75 Fc=.5 Cje=22.01p Mje=.377 Vje=.75 Tr=46.91n Tf=411.1p Itf=.6 Vtf=1.7 Xtf=3 Rb=10 Vceo=40 Icrating=800m mfg=NXP)
.model 2N2220 NPN (Is=3.108f Xti=3 Eg=1.11 Vaf=303.2 Bf=45.18 Ne=1.541 Ise=918.1f Ikf=1.296 Xtb=1.5 Br=16.28 Nc=2 Isc=0 Ikr=0 Rc=1 Cjc=14.57p Vjc=.75 Mjc=.3333 Fc=.5 Cje=26.08p Vje=.75 Mje=.3333 Tr=42.81n Tf=449.4p Itf=.1 Vtf=10 Xtf=2 Rb=10)
.model 2N2221 NPN (Is=14.34f Xti=3 Eg=1.11 Vaf=74.03 Bf=118.6 Ne=1.236 Ise=14.34f Ikf=.2524 Xtb=1.5 Br=7.134 Nc=2 Isc=0 Ikr=0 Rc=1 Cjc=7.306p Mjc=.3416 Vjc=.75 Fc=.5 Cje=22.01p Mje=.377 Vje=.75 Tr=50.96n Tf=410.3p Itf=.6 Vtf=1.7 Xtf=3 Rb=10)
.model 2N2221A NPN (Is=14.34f Xti=3 Eg=1.11 Vaf=74.03 Bf=118.6 Ne=1.236 Ise=14.34f Ikf=.2524 Xtb=1.5 Br=7.134 Nc=2 Isc=0 Ikr=0 Rc=1 Cjc=7.306p Mjc=.3416 Vjc=.75 Fc=.5 Cje=22.01p Mje=.377 Vje=.75 Tr=50.96n Tf=410.3p Itf=.6 Vtf=1.7 Xtf=3 Rb=10)
.model 2N2222 NPN(IS=1E-14 VAF=100 BF=200 IKF=0.3 XTB=1.5 BR=3 CJC=8E-12 CJE=25E-12 TR=100E-9 TF=400E-12 ITF=1 VTF=2 XTF=3 RB=10 RC=.3 RE=.2 Vceo=30 Icrating=800m mfg=NXP)
.model 2N2222/27C NPN (IS=3.97589E-14 BF=195.3412 NF=1.0040078 VAF=53.081 IKF=0.976 ISE=1.60241E-14 NE=1.4791931 BR=1.1107942 NR=0.9928261 VAR=11.3571702 IKR=2.4993953 ISC=1.88505E-12 NC=1.1838278 RB=56.5826472 IRB=1.50459E-4 RBM=5.2592283 RE=0.0402974 RC=0.4208 CJE=2.56E-11 VJE=0.682256 MJE=0.3358856 TF=3.3E-10 XTF=6 VTF=0.574 ITF=0.32 PTF=25.832 CJC=1.40625E-11 VJC=0.5417393 MJC=0.4547893 XCJC=1 TR=3.2E-7 CJS=0 VJS=.75 MJS=0 XTB=1.6486 EG=1.11 XTI=5.8315 KF=0 AF=1 FC=0.83)
.model 2N2222/27C/RAD1 NPN (IS=4.812671E-14 BF=677.1088335 NF=1.0174742 VAF=56.8504092 IKF=0.1324 ISE=1.075889E-11 NE=1.4715922 BR=0.237068 NR=1.0167069 VAR=12.6884499 IKR=0.155924 ISC=4.113268E-10 NC=1.4390052 RB=16.8412858 IRB=3.317851E-3 RBM=0.1002459 RE=0.0679 RC=2.8 CJE=2.397638E-11 VJE=0.6390469 MJE=0.3182547 TF=3.15E-10 XTF=86.12789 VTF=0.58341 ITF=1.4318 PTF=15.203 CJC=9.861083E-12 VJC=0.3790378 MJC=0.2774693 XCJC=1 TR=1.80547E-07 CJS=0 VJS=.75 MJS=0 XTB=0.8983006 EG=1.11 XTI=5.8015454 KF=0 AF=1 FC=0.5869796)
.model 2N2222/27C/RAD2 NPN (IS=3.264 BF=209.9173695 NF=0.9978319 VAF=70.2026412 IKF=0.60234 ISE=2.000315E-14 NE=1.3631519 BR=10.1953376 NR=0.9983541 VAR=12.5565615 IKR=0.0996144 ISC=3.86478E-12 NC=1.2377968 RB=21.923 IRB=3.213E-7 RBM=0.0132 RE=0.089456 RC=0.8 CJE=2.491485E-11 VJE=0.6045747 MJE=0.3037877 TF=3.3E-10 XTF=15 VTF=0.55 ITF=0.45 PTF=16.94692 CJC=1.2892E-11 VJC=0.4786456 MJC=0.3803305 XCJC=1 TR=2.298E-7 CJS=0 VJS=.75 MJS=0 XTB=1.5645 EG=1.11 XTI=5.92 KF=0 AF=1 FC=0.812)
.model 2N2222/27C/RAD3 NPN (IS=4.74104E-14 BF=184.5502787 NF=1.0075158 VAF=70.6851738 IKF=1.1437 ISE=2.68285E-13 NE=1.4500154 BR=1.7613543 NR=1.0058437 VAR=11.9503752 IKR=0.5688987 ISC=3.56588E-11 NC=1.391604 RB=16.605 IRB=6.80728E-3 RBM=5.1429363 RE=0.05132 RC=0.84208 CJE=2.70699E-11 VJE=0.6943991 MJE=0.3347065 TF=2.9E-10 XTF=8 VTF=0.8 ITF=0.48 PTF=23.1895 CJC=1.14865E-11 VJC=0.370649 MJC=0.2962979 XCJC=1 TR=1.905E-7 CJS=0 VJS=.75 MJS=0 XTB=1.35 EG=1.11 XTI=6.27 KF=0 AF=1 FC=0.9142743)
.model 2N2222/27C/RAD4 NPN (IS=7.500887E-14 BF=167.53 NF=1.0393646 VAF=65.8529412 IKF=0.91 ISE=2.16818E-12 NE=1.4726677 BR=1.1535882 NR=1.0320506 VAR=18.725 IKR=0.01456 ISC=3.6E-10 NC=1.545 RB=8.6921343 IRB=5.746859E-3 RBM=4.3337729 RE=0.0423 RC=2.076 CJE=2.56041E-11 VJE=0.6899159 MJE=0.3392995 TF=3.5E-10 XTF=1.95 VTF=0.202 ITF=0.1448 PTF=15.9593906 CJC=1.087219E-11 VJC=0.4349217 MJC=0.3188203 XCJC=1 TR=1.3436E-07 CJS=0 VJS=.75 MJS=0 XTB=1.0 EG=1.11 XTI=3.94 KF=0 AF=1 FC=0.8)
.model 2N2222/27C/RAD5 NPN (IS=4.43463E-14 BF=350.9838028 NF=1.0043312 VAF=57.696 IKF=0.5102349 ISE=3.76496E-13 NE=1.3503728 BR=1.3237677 NR=1.0008507 VAR=11.9471323 IKR=0.1836131 ISC=1.1154E-10 NC=1.4363409 RB=19.318 IRB=1.16324E-3 RBM=4.8132378 RE=0.01134 RC=1.6234 CJE=2.52461E-11 VJE=0.6523647 MJE=0.3206423 TF=3.15E-10 XTF=12 VTF=0.6123 ITF=0.58 PTF=15.203 CJC=1.188E-11 VJC=0.3351502 MJC=0.3066378 XCJC=1 TR=2.70547E-7 CJS=0 VJS=.75 MJS=0 XTB=1.6825 EG=1.11 XTI=5.6035 KF=0 AF=1 FC=0.89)
.model 2N2222/27C/RAD6 NPN (IS=4.86618E-14 BF=202.7151218 NF=1.0111277 VAF=28.614 IKF=0.9559527 ISE=1.036218E-13 NE=1.3684813 BR=1.8129226 NR=0.9998 VAR=17.1963295 IKR=0.1 ISC=2.367983E-11 NC=1.391 RB=26.8786 IRB=1.946929E-3 RBM=3.9674546 RE=2.2916E-3 RC=1.297 CJE=2.497903E-11 VJE=0.6873638 MJE=0.3403332 TF=3.4E-10 XTF=12.514 VTF=0.8301 ITF=0.5141 PTF=8.0802146 CJC=1.206664E-11 VJC=0.4648525 MJC=0.3719912 XCJC=1 TR=1.82327E-07 CJS=0 VJS=.75 MJS=0 XTB=1.45 EG=1.11 XTI=6.33 KF=0 AF=1 FC=0.8)
.model 2N2222/75C NPN (BF=213.7 NF=0.995639 VAF=53.081 IKF=0.7328 ISE=4.39049E-15 NE=1.4235278 BR=2.856 NR=0.9981057 VAR=11.3571702 IKR=2.499 ISC=4.49141E-13 NC=1.1481608 RB=26.1324 IRB=1.50459E-4 RBM=5.2592283 RE=0.0430055 RC=0.7905 CJE=2.56E-11 VJE=0.682256 MJE=0.3358856 TF=3.331E-10 XTF=6 VTF=0.574 ITF=0.32 PTF=25.832 CJC=1.40625E-11 VJC=0.5417393 MJC=0.4547893 XCJC=1 TR=2.455E-7 CJS=0 VJS=.75 MJS=0 XTB=0.7984725 EG=1.11 XTI=7.9086737 KF=0 AF=1 FC=0.83)
.model 2N2222/75C/RAD NPN (IS=6.34734E-14 BF=260 NF=1.0140333 VAF=57.696 IKF=0.3 ISE=3.128169E-13 NE=1.331343 BR=1.5646669 NR=1.0101986 VAR=11.9471323 IKR=0.0267332 ISC=1.475755E-10 NC=1.4452987 RB=19.318 IRB=1.911174E-4 RBM=2.9323207 RE=6.754E-3 RC=1.6234 CJE=2.52461E-11 VJE=0.6523647 MJE=0.3206423 TF=3.15E-10 XTF=12 VTF=0.6123 ITF=0.58 PTF=15.203 CJC=1.188E-11 VJC=0.3351502 MJC=0.3066378 XCJC=1 TR=2.50547E-7 CJS=0 VJS=.75 MJS=0 XTB=2.7431898 EG=1.11 XTI=3.8764111 KF=0 AF=1 FC=0.89)
.model 2N2222/125C NPN (IS=3.9237E-14 BF=245.132 NF=1.0354122 VAF=53.081 IKF=0.4607 ISE=1.36683E-15 NE=1.26735 BR=2.1458749 NR=1.0352238 VAR=11.3571702 IKR=0.0967063 ISC=7.01348E-13 NC=1.3521154 RB=26.1324 IRB=1.50459E-4 RBM=5.2592283 RE=0.0430055 RC=0.7905 CJE=2.56E-11 VJE=0.682256 MJE=0.3358856 TF=3.331E-10 XTF=6 VTF=0.574 ITF=0.32 PTF=25.832 CJC=1.40625E-11 VJC=0.5417393 MJC=0.4547893 XCJC=1 TR=2.355E-7 CJS=0 VJS=.75 MJS=0 XTB=0.6420335 EG=1.11 XTI=6.6265186 KF=0 AF=1 FC=0.83)
.model 2N2222/-15C NPN (BF=213.0973978 NF=1.008908 VAF=53.081 IKF=0.5893 ISE=2.19156E-14 NE=1.4671138 BR=8.8040792 NR=1.0089591 VAR=11.3571702 IKR=2.499 ISC=5.12754E-12 NC=1.2164033 RB=26.1324 IRB=1.50459E-4 RBM=5.2592283 RE=0.0430055 RC=0.7905 CJE=2.56E-11 VJE=0.682256 MJE=0.3358856 TF=3.331E-10 XTF=6 VTF=0.574 ITF=0.32 PTF=25.832 CJC=1.40625E-11 VJC=0.5417393 MJC=0.4547893 XCJC=1 TR=3.805E-7 CJS=0 VJS=.75 MJS=0 XTB=2.043066 EG=1.11 XTI=4.6274838 KF=0 AF=1 FC=0.83)
.model 2N2222/-15C/RAD1 NPN (IS=4.43463E-14 BF=386.23 NF=1.0043312 VAF=57.696 IKF=0.5102349 ISE=3.76496E-13 NE=1.3503728 BR=3.4607744 NR=1.0033043 VAR=11.9471323 IKR=1.2712258 ISC=9.619168E-11 NC=1.3959123 RB=19.318 IRB=5.2346E-5 RBM=1.2165 RE=0.0357292 RC=1.209874 CJE=2.52461E-11 VJE=0.6523647MJE=0.3206423 TF=3.15E-10 XTF=12 VTF=0.6123 ITF=0.58 PTF=15.203 CJC=1.188E-11 VJC=0.3351502 MJC=0.3066378XCJC=1 TR=3.50547E-7 CJS=0 VJS=.75 MJS=0 XTB=1.1320001 EG=1.11 XTI=6.4671154 KF=0 AF=1 FC=0.89)
.model 2N2222/-15C/RAD2 NPN (IS=4.43463E-14 BF=386.23 NF=1.0043312 VAF=57.696 IKF=0.5102349 ISE=3.76496E-13 NE=1.3503728 BR=3.4607744 NR=1.0033043 VAR=11.9471323 IKR=1.2712258 ISC=9.619168E-11 NC=1.3959123 RB=19.318 IRB=5.2346E-5 RBM=1.2165 RE=0.0357292 RC=1.209874 CJE=2.52461E-11 VJE=0.6523647 MJE=0.3206423 TF=3.15E-10 XTF=12 VTF=0.6123 ITF=0.58 PTF=15.203 CJC=1.188E-11 VJC=0.3351502 MJC=0.3066378 XCJC=1 TR=3.50547E-7 CJS=0 VJS=.75 MJS=0 XTB=1.1320001 EG=1.11 XTI=6.4671154 KF=0 AF=1 FC=0.89)
.model 2N2222/-55C NPN (IS=1.91785E-14 BF=213.1172905 NF=0.9858464 VAF=53.081 IKF=0.6539 ISE=6.85274E-14 NE=1.6195943 BR=9.1946163 NR=0.9849372 VAR=11.3571702 IKR=2.5217344 ISC=1.18595E-11 NC=1.2680537 RB=26.1324 IRB=1.50459E-4 RBM=5.2592283 RE=0.0430055 RC=0.7905 CJE=2.56E-11 VJE=0.682256 MJE=0.3358856 TF=3.331E-10 XTF=6 VTF=0.574 ITF=0.32 PTF=25.832 CJC=1.40625E-11 VJC=0.5417393 MJC=0.4547893 XCJC=1 TR=3.605E-7 CJS=0 VJS=.75 MJS=0 XTB=2.3446135 EG=1.11 XTI=6.375194 KF=0 AF=1 FC=0.83)
.model 2N2222/-55C/RAD1 NPN (IS=3.264912E-14 BF=209.9173695 NF=0.9978319 VAF=70.2026412 IKF=0.60234 ISE=2.000315E-14 NE=1.3631519 BR=10.1953376 NR=0.9997449 VAR=12.5565615 IKR=0.0996144 ISC=2.610253E-11 NC=1.3643432 RB=21.923 IRB=3.213E-7 RBM=0.0132 RE=0.089456 RC=0.8 CJE=2.491485E-11 VJE=0.6045747 MJE=0.3037877 TF=3.3E-10 XTF=15 VTF=0.55 ITF=0.45 PTF=16.94692 CJC=1.2892E-11 VJC=0.4786456 MJC=0.3803305 XCJC=1 TR=9.698E-8 CJS=0 VJS=.75 MJS=0 XTB=2.028563 EG=1.11 XTI=7.0385499 KF=0 AF=1 FC=0.812)
.model 2N2222/-55C/RAD2 NPN (IS=4.43463E-14 BF=350.9838028 NF=1.0043312 VAF=57.696 IKF=0.8139 ISE=3.76496E-13 NE=1.3503728 BR=68.5482097 NR=1.0010526 VAR=11.9471323 IKR=0.0873496 ISC=9.972935E-11 NC=1.3786876 RB=19.318 IRB=1E-4 RBM=1.3129 RE=5.74E-3 RC=1.234 CJE=2.52461E-11 VJE=0.6523647 MJE=0.3206423 TF=3.15E-10 XTF=12 VTF=0.6123 ITF=0.58 PTF=15.203 CJC=1.188E-11 VJC=0.3351502 MJC=0.3066378 XCJC=1 TR=3.80547E-7 CJS=0 VJS=.75 MJS=0 XTB=1.1858505 EG=1.11 XTI=6.7596215 KF=0 AF=1 FC=0.89)
.model 2N2222/TEMP NPN (IS=3.97589E-14 BF=195.3412 NF=1.0040078 VAF=53.081 IKF=0.976 ISE=1.60241E-14 NE=1.4791931 BR=1.1107942 NR=0.9928261 VAR=11.3571702 IKR=2.4993953 ISC=1.88505E-12 NC=1.1838278 RB=56.5826472 IRB=1.50459E-4 RBM=5.2592283 RE=0.0402974 RC=0.4208 CJE=2.56E-11 VJE=0.682256 MJE=0.3358856 TF=3.3E-10 XTF=6 VTF=0.574 ITF=0.32 PTF=25.832 CJC=1.40625E-11 VJC=0.5417393 MJC=0.4547893 XCJC=1 TR=3.75E-7 CJS=0 VJS=.75 MJS=0 XTB=1.6486 EG=1.11 XTI=5.8315 KF=0 AF=1 FC=0.83)
.model 2N2222A NPN (Is=14.34f Xti=3 Eg=1.11 Vaf=74.03 Bf=255.9 Ne=1.307 Ise=14.34f Ikf=.2847 Xtb=1.5 Br=6.092 Nc=2 Isc=0 Ikr=0 Rc=1 Cjc=7.306p Mjc=.3416 Vjc=.75 Fc=.5 Cje=22.01p Mje=.377 Vje=.75 Tr=46.91n Tf=411.1p Itf=.6Vtf=1.7 Xtf=3 Rb=10 Vceo=40 Icrating=800m mfg=Fairchild)
.model 2N2243 NPN (IS=9.79F NF=1 BF=110 VAF=161 IKF=.3 ISE=9.9P NE=2 BR=4 NR=1 VAR=28 IKR=.45 RE=.263 RB=1.05 RC=.105 XTB=1.5 CJE=62.2P VJE=1.1 MJE=.5 CJC=23.6P VJC=.3 MJC=.3 TF=1.59N TR=510N)
.model 2N2270 NPN (Is=14.1f Xti=3 Eg=1.11 Vaf=100 Bf=162.9 Ne=1.5 Ise=0 Ikf=.75 Xtb=1.5 Br=5.087 Nc=2 Isc=0 Ikr=0 Rc=.7 Cjc=15.69p Mjc=.3603 Vjc=.75 Fc=.5 Cje=55.06p Mje=.1553 Vje=.75 Tr=824.1p Tf=584.2p Itf=1 Vtf=5 Xtf=55 Rb=10)
.model 2N2282 PNP (Is=3.108f Xti=3 Eg=1.11 Vaf=131.5 Bf=217.5 Ne=1.541 Ise=190.7f Ikf=1.296 Xtb=1.5 Br=6.18 Nc=2 Isc=0 Ikr=0 Rc=1 Cjc=14.57p Vjc=.75 Mjc=.3333 Fc=.5 Cje=26.08p Vje=.75 Mje=.3333 Tr=51.35n Tf=365.3p Itf=.1 Vtf=10 Xtf=2 Rb=10)
.model 2N2368 NPN (IS=107F NF=1.1 BF=160 VAF=69.7 IKF=58M ISE=197P NE=2 BR=4 NR=1 VAR=18 IKR=87M RE=1.06 RB=1.25 RC=.925 XTB=1.5 MJE=.1314 VJE=.4715 CJE=3.12P MJC=.102 VJC=.82 CJC=3.02P TF=457P TR=3.17N)
.model 2N2369 NPN(Is=44.14f Xti=3 Eg=1.11 Vaf=100 Bf=78.32 Ne=1.389 Ise=91.95f Ikf=.3498 Xtb=1.5 Br=12.69m Nc=2 Isc=0 Ikr=0 Rc=.6 Cjc=2.83p Mjc=86.19m Vjc=.75 Fc=.5 Cje=4.5p Mje=.2418 Vje=.75 Tr=1.073u Tf=227.6p Itf=.3 Vtf=4 Xtf=4 Rb=10 Vceo=15 Icrating=200m mfg=NXP)
.model 2N2369A NPN (IS=2.03E-14 NF=1.0 BF=130 VAF=70 IKF=5.0E-02 ISE=1.01E-11 NE=2.0 BR=4 NR=1.0 VAR=18 XTB=1.5 RE=2.12 RB=5.8 RC=.58 CJE=3.2E-12 MJE=.196 VJE=.47 CJC=3.3E-12 MJC=.05 VJC=.395 TF=2.6E-10 TR=4.2E-09)
.model 2N2405 NPN (Is=2.079f Xti=3 Eg=1.11 Vaf=100 Bf=167.2 Ise=24.36f Ne=1.357 Ikf=1.088 Nk=.8271 Xtb=1.5 Br=1.502 Isc=264.6f Nc=1.545 Ikr=.3028 Rc=.9069 Cjc=45.29p Mjc=.31 Vjc=.5 Fc=.5 Cje=58.12p Mje=.441 Vje=.5 Tr=1u Tf=738.1p Itf=2.376 Xtf=24.93 Vtf=10)
.model 2N2453 NPN (IS=163N NF=1 BF=636 VAF=98.6 IKF=50M ISE=2.13N NE=2 BR=4 NR=1 VAR=28 IKR=75M RE=96.3 RB=385 RC=38.5 XTB=1.5 CJE=12P VJE=1.1 MJE=.5 CJC=23.1P VJC=.3 MJC=.3 TF=2.65N TR=1.7U)
.model 2N2453A NPN (IS=163N NF=1 BF=636 VAF=127 IKF=50M ISE=2.13N NE=2 BR=4 NR=1 VAR=28 IKR=75M RE=96.3 RB=385 RC=38.5 XTB=1.5 CJE=12P VJE=1.1 MJE=.5 CJC=23.1P VJC=.3 MJC=.3 TF=2.65N TR=1.7U)
.model 2N2484 NPN (IS=5.911f ISE=5.911f ISC=0 XTI=3 BF=697.1 BR=1.297 IKF=13.93m IKR=0 XTB=1.5 VAF=62.37 VAR=21.5 VJE=0.65 VJC=0.65 RE=0.15 RC=1.61 RB=10 CJE=4.973p CJC=4.017p XCJC=0.75 FC=0.5 NF=1 NR=1 NE=1.342 NC=2 MJE=0.4146 MJC=0.3174 TF=820.4p TR=4.687n ITF=0.35 VTF=4 XTF=7 EG=1.11 VCEO=60 ICRATING=50m MFG=NSC)
.model 2N2509 NPN (Is=5.911f Xti=3 Eg=1.11 Vaf=62.37 Bf=332.3 Ne=1.22 Ise=5.911f Ikf=11.21m Xtb=1.5 Br=1.498 Nc=2 Isc=0 Ikr=0 Rc=1.61 Cjc=4.017p Mjc=.3174 Vjc=.75 Fc=.5 Cje=4.973p Mje=.4146 Vje=.75 Tr=4.898n Tf=815.9p Itf=.35 Vtf=4 Xtf=7 Rb=10)
.model 2N2510 NPN (Is=5.911f Xti=3 Eg=1.11 Vaf=62.37 Bf=508.3 Ne=1.305 Ise=5.911f Ikf=13.18m Xtb=1.5 Br=1.327 Nc=2 Isc=0 Ikr=0 Rc=1.61 Cjc=4.017p Mjc=.3174 Vjc=.75 Fc=.5 Cje=4.973p Mje=.4146 Vje=.75 Tr=4.714n Tf=819.4p Itf=.35 Vtf=4 Xtf=7 Rb=10)
.model 2N2511 NPN (Is=5.911f Xti=3 Eg=1.11 Vaf=62.37 Bf=659.4 Ne=1.336 Ise=5.911f Ikf=13.81m Xtb=1.5 Br=1.301 Nc=2 Isc=0 Ikr=0 Rc=1.61 Cjc=4.017p Mjc=.3174 Vjc=.75 Fc=.5 Cje=4.973p Mje=.4146 Vje=.75 Tr=4.691n Tf=820.3p Itf=.35 Vtf=4 Xtf=7 Rb=10)
.model 2N2586 NPN (Is=5.911f Xti=3 Eg=1.11 Vaf=62.37 Bf=659.4 Ne=1.336 Ise=5.911f Ikf=13.81m Xtb=1.5 Br=1.301 Nc=2 Isc=0 Ikr=0 Rc=1.61 Cjc=4.017p Mjc=.3174 Vjc=.75 Fc=.5 Cje=4.973p Mje=.4146 Vje=.75 Tr=4.691n Tf=820.3p Itf=.35 Vtf=4 Xtf=7 Rb=10)
.model 2N2604 PNP (Is=6.734f Xti=3 Eg=1.11 Vaf=45.7 Bf=66.17 Ne=1.555 Ise=6.734f Ikf=.1614 Xtb=1.5 Br=3.149 Nc=2 Isc=0 Ikr=0 Rc=1.67 Cjc=6.2p Mjc=.301 Vjc=.75 Fc=.5 Cje=7.5p Mje=.2861 Vje=.75 Tr=12.62n Tf=466.9p Itf=.17 Vtf=5 Xtf=8 Rb=10)
.model 2N2605 PNP (Is=6.734f Xti=3 Eg=1.11 Vaf=45.7 Bf=163.8 Ne=1.676 Ise=6.734f Ikf=.1832 Xtb=1.5 Br=2.763 Nc=2 Isc=0 Ikr=0 Rc=1.67 Cjc=6.2p Mjc=.301 Vjc=.75 Fc=.5 Cje=7.5p Mje=.2861 Vje=.75 Tr=10.52n Tf=467.5p Itf=.17 Vtf=5 Xtf=8 Rb=10)
.model 2N2696 PNP (Is=650.6E-18 Xti=3 Eg=1.11 Vaf=115.7 Bf=60.06 Ne=1.829 Ise=211.4f Ikf=1.079 Xtb=1.5 Br=4.32 Nc=2 Isc=0 Ikr=0 Rc=.715 Cjc=14.76p Mjc=.5383 Vjc=.75 Fc=.5 Cje=19.82p Mje=.3357 Vje=.75 Tr=122n Tf=761.3p Itf=.65 Vtf=5 Xtf=1.7 Rb=10)
.model 2N2710 NPN (IS=5.08E-14 NF=1.0 BF=104 VAF=80 IKF=3.0E-01 ISE=4.88E-11 NE=2.0 BR=4 NR=1.0 VAR=20 XTB=1.5 RE=3.6E+00 RB=1.5E+01 RC=1.5E+00 CJE=1.3E-11 CJC=8.4E-12 TF=2.3E-10 TR=4.2E-09)
.model 2N2712 NPN (Is=61.01f Xti=3 Eg=1.11 Vaf=57.37 Bf=204 Ne=1.305 Ise=72.68f Ikf=97.79m Xtb=1.5 Br=.2181 Nc=2 Isc=0 Ikr=0 Rc=2.14 Cjc=6.072p Mjc=.3333 Vjc=.75 Fc=.5 Cje=5.928p Mje=.3333 Vje=.75 Tr=1.567u Tf=414p Itf=.2 Vtf=5 Xtf=8 Rb=10)
.model 2N2714 NPN (Is=61.01f Xti=3 Eg=1.11 Vaf=57.37 Bf=204 Ne=1.305 Ise=72.68f Ikf=97.79m Xtb=1.5 Br=.2181 Nc=2 Isc=0 Ikr=0 Rc=2.14 Cjc=6.072p Mjc=.3333 Vjc=.75 Fc=.5 Cje=5.928p Mje=.3333 Vje=.75 Tr=1.567u Tf=316.3p Itf=.2 Vtf=5 Xtf=8 Rb=10)
.model 2N2857 NPN (Is=69.28E-18 Xti=3 Eg=1.11 Vaf=100 Bf=288 Ne=1.167 Ise=69.28E-18 Ikf=21.59m Xtb=1.5 Br=1.219 Nc=2 Isc=0 Ikr=0 Rc=4 Cjc=893.1f Mjc=.3017 Vjc=.75 Fc=.5 Cje=939.8f Mje=.3453 Vje=.75 Tr=1.607n Tf=115.7p Itf=.27 Vtf=10 Xtf=30 Rb=10)
.model 2N2894 PNP (Is=867.6E-18 Xti=3 Eg=1.11 Vaf=100 Bf=90.02 Ne=2.116 Ise=283.3f Ikf=.149 Xtb=1.5 Br=.7886 Nc=2 Isc=0 Ikr=0 Rc=1.75 Cjc=4.524p Mjc=.2226 Vjc=.75 Fc=.5 Cje=5.881p Mje=.4345 Vje=.75 Tr=17.87n Tf=160.8p Itf=.6 Vtf=3 Xtf=1.5 Rb=10)
.model 2N2894A PNP (Is=867.6E-18 Xti=3 Eg=1.11 Vaf=100 Bf=81.33 Ne=2.035 Ise=199.5f Ikf=.1441 Xtb=1.5 Br=.8006 Nc=2 Isc=0 Ikr=0 Rc=1.75 Cjc=3.856p Mjc=.2225 Vjc=.75 Fc=.5 Cje=5.881p Mje=.4345 Vje=.75 Tr=18n Tf=161.2p Itf=.6 Vtf=3 Xtf=1.5 Rb=10)
.model 2N2897 NPN (Is=14.34f Xti=3 Eg=1.11 Vaf=74.03 Bf=160.6 Ne=1.264 Ise=14.34f Ikf=.2648 Xtb=1.5 Br=6.565 Nc=2 Isc=0 Ikr=0 Rc=1 Cjc=9.393p Mjc=.3416 Vjc=.75 Fc=.5 Cje=22.01p Mje=.377 Vje=.75 Tr=48.79n Tf=409.6p Itf=.6 Vtf=1.7 Xtf=3 Rb=10)
.model 2N2904 PNP (IS=381F NF=1 BF=51.5 VAF=113 IKF=.14 ISE=46.1P NE=2 BR=4 NR=1 VAR=20 IKR=.21 RE=.552 RB=2.21 RC=.221 XTB=1.5 CJE=15.6P CJC=20.8P TF=636P TR=63.7N)
.model 2N2904A PNP (IS=381F NF=1 BF=82.4 VAF=139 IKF=.14 ISE=28.8P NE=2 BR=4 NR=1 VAR=20 IKR=.21 RE=.552 RB=2.21 RC=.221 XTB=1.5 CJE=15.6P CJC=20.8P TF=636P TR=63.7N)
.model 2N2905 PNP (IS=650.6E-18 ISE=54.81f ISC=0 XTI=3 BF=231.7 BR=3.563 IKF=1.079 IKR=0 XTB=1.5 VAF=115.7 VAR=35 VJE=0.65 VJC=0.65 RE=0.15 RC=0.715 RB=10 CJE=19.82p CJC=14.76p XCJC=0.75 FC=0.5 NF=1 NR=1 NE=1.829 NC=2 MJE=0.3357 MJC=0.5383 TF=603.7p TR=111.3n ITF=0.65 VTF=5 XTF=1.7 EG=1.11 VCEO=40 ICRATING=600M MFG=PHILIPS)
.model 2N2905A PNP(Is=650.6E-18 Xti=3 Eg=1.11 Vaf=115.7 Bf=231.7 Ne=1.829 Ise=54.81f Ikf=1.079 Xtb=1.5 Br=3.563 Nc=2 Isc=0 Ikr=0 Rc=.715 Cjc=14.76p Mjc=.5383 Vjc=.75 Fc=.5 Cje=19.82p Mje=.3357 Vje=.75 Tr=111.3n Tf=603.7p Itf=.65 Vtf=5 Xtf=1.7 Rb=10 Vceo=60 Icrating=600m mfg=NXP)
.model 2N2906 PNP (IS=381F NF=1 BF=51.5 VAF=113 IKF=.14 ISE=46.1P NE=2 BR=4 NR=1 VAR=20 IKR=.21 RE=.552 RB=2.21 RC=.221 XTB=1.5 CJE=15.6P CJC=20.8P TF=636P TR=63.7N)
.model 2N2906A PNP (IS=381F NF=1 BF=82.4 VAF=139 IKF=.14 ISE=28.8P NE=2 BR=4 NR=1 VAR=20 IKR=.21 RE=.552 RB=2.21 RC=.221 XTB=1.5 CJE=15.6P CJC=20.8P TF=636P TR=63.7N)
.model 2N2907 PNP(IS=1E-14 VAF=120 BF=250 IKF=0.3 XTB=1.5 BR=3 CJC=8E-12 CJE=30E-12 TR=100E-9 TF=400E-12 ITF=1 VTF=2 XTF=3 RB=10 RC=.3 RE=.2 Vceo=40 Icrating=600m mfg=NXP)
.model 2N2907A PNP (IS=381F NF=1 BF=154 VAF=139 IKF=.14 ISE=15.3P NE=2 BR=4 NR=1 VAR=20 IKR=.21 RE=.552 RB=2.21 RC=.221 XTB=1.5 CJE=15.6P CJC=20.8P TF=636P TR=63.7N)
.model 2N2907P PNP (IS=650.6E-18 ISE=54.81f ISC=0 XTI=3 BF=231.7 BR=3.563 IKF=1.079 IKR=0 XTB=1.5 VAF=115.7 VAR=35 VJE=0.65 VJC=0.65 RE=0.15 RC=0.715 RB=10 CJE=19.82p CJC=14.76p XCJC=0.75 FC=0.5 NF=1 NR=1 NE=1.829 NC=2 MJE=0.3357 MJC=0.5383 TF=603.7p TR=111.3n ITF=0.65 VTF=5 XTF=1.7 EG=1.11 VCEO=40 ICRATING=600M MFG=NSC-PHILIPS)
.model 2N2907S PNP (IS=2.32E-13 ISE=6.69E-16 ISC=1.65E-13 XTI=3.00 BF=3.08E2 BR=2.18E1 IKF=8.42E-1 IKR=1.00 XTB=1.5 VAF=1.41E2 VAR=1.35E1 VJE=3.49E-1 VJC=3.00E-1 RE=1.00E-2 RC=8.46E-1 RB=4.02E1 RBM=1.00E-2 IRB=1.25E-2 CJE=2.66E-11 CJC=1.93E-11 .00 FC=5.00E-1 NF=1.04 NR=1.12 NE=1.09 NC=1.13 MJE=4.60E-1 MJC=4.65E-1 TF=4.95E-10 TR=0 ITF=3.36E-1 VTF=6.54 XTF=1.87E1 EG=1.11 VCEO=80 ICRATING=5 MFG=SIEMENS)
.model 2N2920 NPN (IS=12.6F NF=1 BF=636 VAF=139 IKF=50M ISE=592F NE=2 BR=4 NR=1 VAR=24 IKR=75M RE=156 RB=626 RC=62.6 XTB=1.5 CJE=12P VJE=1.1 MJE=.5 CJC=9.47P VJC=.3 MJC=.3 TF=2.65N TR=1.7U)
.model 2N2923 NPN (Is=12.03f Xti=3 Eg=1.11 Vaf=37.37 Bf=176.2 Ne=1.971 Ise=7.171p Ikf=.1072 Xtb=1.5 Br=4.379 Nc=2 Isc=0 Ikr=0 Rc=1 Cjc=5.777p Mjc=.3199 Vjc=.75 Fc=.5 Cje=8.307p Mje=.384 Vje=.75 Tr=767.1p Tf=385.4p Itf=.17 Vtf=3 Xtf=8 Rb=10)
.model 2N2924 NPN (Is=12.03f Xti=3 Eg=1.11 Vaf=37.37 Bf=295.7 Ne=1.971 Ise=4.272p Ikf=.1072 Xtb=1.5 Br=4.379 Nc=2 Isc=0 Ikr=0 Rc=1 Cjc=5.777p Mjc=.3199 Vjc=.75 Fc=.5 Cje=8.307p Mje=.384 Vje=.75 Tr=721.6p Tf=385.4p Itf=.17 Vtf=3 Xtf=8 Rb=10)
.model 2N2925 NPN (Is=12.03f Xti=3 Eg=1.11 Vaf=37.37 Bf=462.4 Ne=1.971 Ise=2.732p Ikf=.1072 Xtb=1.5 Br=4.379 Nc=2 Isc=0 Ikr=0 Rc=1 Cjc=5.777p Mjc=.3199 Vjc=.75 Fc=.5 Cje=8.307p Mje=.384 Vje=.75 Tr=698.4p Tf=385.4p Itf=.17 Vtf=3 Xtf=8 Rb=10)
.model 2N2926 NPN (Is=12.03f Xti=3 Eg=1.11 Vaf=37.37 Bf=226.5 Ne=1.971 Ise=5.577p Ikf=.1072 Xtb=1.5 Br=4.379 Nc=2 Isc=0 Ikr=0 Rc=1 Cjc=5.777p Mjc=.3199 Vjc=.75 Fc=.5 Cje=8.307p Mje=.384 Vje=.75 Tr=741.8p Tf=385.4p Itf=.17 Vtf=3 Xtf=8 Rb=10)
.model 2N2955 PNP (IS=4.66p BF=360 VAF=100 IKF=0.25 ISE=3.339E-11 BR=2 ISC=5E-9 RB=3 IRB=0.001 RBM=0.4 RC=0.04 CJE=5.802E-10 VJE=1.2 MJE=0.45 TF=8E-8 XTF=1 ITF=3 PTF=120 CJC=2.121E-10 MJC=0.4 TR=2.55u XTB=1 Vceo=70 Icrating=15)
.model 2N3009 NPN (Is=1.017f Xti=3 Eg=1.11 Vaf=100 Bf=85.99 Ne=2.048 Ise=34.11p Ikf=.2617 Xtb=1.5 Br=3.587 Nc=2 Isc=0 Ikr=0 Rc=1.75 Cjc=4.256p Mjc=.1053 Vjc=.75 Fc=.5 Cje=8.359p Mje=.3504 Vje=.75 Tr=5.32n Tf=289.3p Itf=.35 Vtf=5 Xtf=2 Rb=10)
.model 2N3011 NPN (Is=44.14f Xti=3 Eg=1.11 Vaf=100 Bf=67.62 Ne=1.402 Ise=118.1f Ikf=.3636 Xtb=1.5 Br=13.04m Nc=2 Isc=0 Ikr=0 Rc=.6 Cjc=2.83p Mjc=86.19m Vjc=.75 Fc=.5 Cje=4.5p Mje=.2418 Vje=.75 Tr=1.087u Tf=227.7p Itf=.3 Vtf=4 Xtf=4 Rb=10)
.model 2N3012 PNP (Is=867.6E-18 Xti=3 Eg=1.11 Vaf=100 Bf=70.34 Ne=2.031 Ise=225f Ikf=.1439 Xtb=1.5 Br=.8203 Nc=2 Isc=0 Ikr=0 Rc=1.75 Cjc=4.524p Mjc=.2226 Vjc=.75 Fc=.5 Cje=5.881p Mje=.4345 Vje=.75 Tr=18.21n Tf=160.8p Itf=.6 Vtf=3 Xtf=1.5 Rb=10)
.model 2N3013 NPN (Is=1.017f Xti=3 Eg=1.11 Vaf=100 Bf=85.99 Ne=2.048 Ise=34.11p Ikf=.2617 Xtb=1.5 Br=3.587 Nc=2 Isc=0 Ikr=0 Rc=1.75 Cjc=4.256p Mjc=.1053 Vjc=.75 Fc=.5 Cje=8.359p Mje=.3504 Vje=.75 Tr=5.32n Tf=289.3p Itf=.35 Vtf=5 Xtf=2 Rb=10)