.model 2N2608 PJF (VTO=-2.45 BETA=423.6u BETATCE=-0.5 LAMBDA=15m RD=1 RS=1 CGS=8.37p CGD=6.7p PB=1 IS=222.4f XTI=3 AF=1 FC=0.5 N=1 NR=2 MFG=NSC)
.model 2N2609 PJF (Beta=3.2m Betatce=-500m Rd=1 Rs=1 Lambda=18.5m Vto=-1.408 Vtotc=-2.5m Is=461.5f Isr=4.402p N=1 Nr=2 Xti=3 Alpha=32.54u Vk=393.2 Cgd=6.5p M=278.9m Pb=1 Fc=500m Cgs=9p Kf=0.2062f Af=1)
.model 2N3329 PJF (Beta=456.9u Betatce=-500m Rd=1 Rs=1 Lambda=12m Vto=-2.114 Vtotc=-2.5m Is=222.4f Isr=2.177p N=1 Nr=2 Xti=3 Alpha=29.8u Vk=400.1 Cgd=7.96p M=482.2m Pb=1 Fc=500m Cgs=9.94p Kf=0.3107f Af=1)
.model 2N3330 PJF (Beta=502u Betatce=-500m Rd=1 Rs=1 Lambda=18m Vto=-2.686 Vtotc=-2.5m Is=222.4f Isr=2.177p N=1 Nr=2 Xti=3 Alpha=29.8u Vk=400.1 Cgd=7.96p M=482.2m Pb=1 Fc=500m Cgs=9.94p Kf=0.3107f Af=1)
.model 2N3331 PJF (Beta=380.2u Betatce=-500m Rd=1 Rs=1 Lambda=25m Vto=-4.449 Vtotc=-2.5m Is=222.4f Isr=2.177p N=1 Nr=2 Xti=3 Alpha=29.8u Vk=400.1 Cgd=7.96p M=482.2m Pb=1 Fc=500m Cgs=9.94p Kf=0.4223f Af=1)
.model 2N3332 PJF (Beta=527.2u Betatce=-500m Rd=1 Rs=1 Lambda=14m Vto=-2.636 Vtotc=-2.5m Is=222.4f Isr=2.177p N=1 Nr=2 Xti=3 Alpha=29.8u Vk=400.1 Cgd=7.96p M=482.2m Pb=1 Fc=500m Cgs=9.94p Kf=0.1815f Af=1)
.model 2N3369 NJF (Beta=336.2u Betatce=-500m Rd=1 Rs=1 Lambda=11m Vto=-2.07 Vtotc=-2.5m Is=114.5f Isr=1.091p N=1 Nr=2 Xti=3 Alpha=506.8u Vk=251.7 Cgd=2.8p M=227.1m Pb=500m Fc=500m Cgs=2.916p Kf=1.214e-003f Af=1)
.model 2N3370 NJF (Beta=766.8u Betatce=-500m Rd=1 Rs=1 Lambda=9m Vto=-650m Vtotc=-2.5m Is=114.5f Isr=1.091p N=1 Nr=2 Xti=3 Alpha=506.8u Vk=251.7 Cgd=2.8p M=227.1m Pb=500m Fc=500m Cgs=2.916p Kf=2.863e-003f Af=1)
.model 2N3458 NJF (Beta=700u Betatce=-500m Rd=1 Rs=1 Lambda=6m Vto=-3.05 Vtotc=-2.5m Is=114.5f Isr=1.091p N=1 Nr=2 Xti=3 Alpha=506.8u Vk=251.7 Cgd=2.8p M=227.1m Pb=500m Fc=500m Cgs=2.916p Kf=2.59e-003f Af=1)
.model 2N3459 NJF (Beta=1.265m Betatce=-500m Rd=1 Rs=1 Lambda=4m Vto=-1.4 Vtotc=-2.5m Is=114.5f Isr=1.091p N=1 Nr=2 Xti=3 Alpha=506.8u Vk=251.7 Cgd=2.8p M=227.1m Pb=500m Fc=500m Cgs=2.916p Kf=4.791e-003f Af=1)
.model 2N3460 NJF (Beta=2.02m Betatce=-500m Rd=1 Rs=1 Lambda=2m Vto=-550m Vtotc=-2.5m Is=114.5f Isr=1.091p N=1 Nr=2 Xti=3 Alpha=506.8u Vk=251.7 Cgd=2.8p M=227.1m Pb=500m Fc=500m Cgs=2.916p Kf=7.722e-003f Af=1)
.model 2N3684 NJF (Beta=348.1u Betatce=-500m Rd=1 Rs=1 Lambda=11.67m Vto=-3.18 Vtotc=-2.5m Is=114.5f Isr=1.091p N=1 Nr=2 Xti=3 Alpha=506.8u Vk=251.7 Cgd=2p M=227.1m Pb=500m Fc=500m Cgs=2.083p Kf=1.259e-003f Af=1)
.model 2N3685 NJF (Beta=543.4u Betatce=-500m Rd=1 Rs=1 Lambda=5.833m Vto=-1.691 Vtotc=-2.5m Is=114.5f Isr=1.091p N=1 Nr=2 Xti=3 Alpha=506.8u Vk=251.7 Cgd=2p M=227.1m Pb=500m Fc=500m Cgs=2.083p Kf=2.004e-003f Af=1)
.model 2N3686 NJF (Beta=723.7u Betatce=-500m Rd=1 Rs=1 Lambda=2.333m Vto=-957m Vtotc=-2.5m Is=114.5f Isr=1.091p N=1 Nr=2 Xti=3 Alpha=506.8u Vk=251.7 Cgd=2p M=227.1m Pb=500m Fc=500m Cgs=2.083p Kf=2.697e-003f Af=1)
.model 2N3687 NJF (Beta=840u Betatce=-500m Rd=1 Rs=1 Lambda=1.167m Vto=-510.2m Vtotc=-2.5m Is=114.5f Isr=1.091p N=1 Nr=2 Xti=3 Alpha=506.8u Vk=251.7 Cgd=2p M=227.1m Pb=500m Fc=500m Cgs=2.083p Kf=3.146e-003f Af=1)
.model 2N3819 NJF (Beta=1.304m Betatce=-.5 Rd=1 Rs=1 Lambda=2.25m Vto=-3 Vtotc=-2.5m Is=33.57f Isr=322.4f N=1 Nr=2 Xti=3 Alpha=311.7u Vk=243.6 Cgd=1.6p M=.3622 Pb=1 Fc=.5 Cgs=2.414p Kf=9.882E-18 Af=1 mfg=Vishay)
.model 2N3820 PJF (Beta=1.271m Betatce=-500m Rd=1 Rs=1 Lambda=40m Vto=-2.5 Vtotc=-2.5m Is=222.4f Isr=2.177p N=1 Nr=2 Xti=3 Alpha=29.8u Vk=400.1 Cgd=13.27p M=482.2m Pb=1 Fc=500m Cgs=16.58p Kf=0.9166f Af=1)
.model 2N3821 NJF (Beta=1.517m Betatce=-500m Rd=1 Rs=1 Lambda=2.045m Vto=-846.7m Vtotc=-2.5m Is=181.3f Isr=1.747p N=1 Nr=2 Xti=3 Alpha=2.543u Vk=152.2 Cgd=4p M=311.4m Pb=500m Fc=500m Cgs=4.627p Kf=1.43e-002f Af=1)
.model 2N3822 NJF (Beta=1.1m Betatce=-500m Rd=1 Rs=1 Lambda=4.09m Vto=-1.962 Vtotc=-2.5m Is=181.3f Isr=1.747p N=1 Nr=2 Xti=3 Alpha=2.543u Vk=152.2 Cgd=4p M=311.4m Pb=500m Fc=500m Cgs=4.627p Kf=1.02e-002f Af=1)
.model 2N3823 NJF (Beta=1.17m Betatce=-500m Rd=1 Rs=1 Lambda=4m Vto=-3.3 Vtotc=-2.5m Is=33.57f Isr=322.4f N=1 Nr=2 Xti=3 Alpha=311.7 Vk=243.6 Cgd=1.6p M=362.2m Pb=1 Fc=500m Cgs=2.414p Kf=8.841e-003f Af=1)
.model 2N3824 NJF (Beta=436.4u Betatce=-500m Rd=1 Rs=1 Lambda=5.333m Vto=-2.139 Vtotc=-2.5m Is=181.3f Isr=1.747p N=1 Nr=2 Xti=3 Alpha=2.543u Vk=152.2 Cgd=4p M=311.4m Pb=500m Fc=500m Cgs=4.627p Kf=3.783e-003f Af=1)
.model 2N3921 NJF (Beta=1.57m Betatce=-500m Rd=1 Rs=1 Lambda=4m Vto=-1.799 Vtotc=-2.5m Is=24.55f Isr=240.1f N=1 Nr=2 Xti=3 Alpha=764.7u Vk=267.7 Cgd=8.8p M=500m Pb=1 Fc=500m Cgs=4.4p Kf=3.392e-002f Af=1)
.model 2N3922 NJF (Beta=1.57m Betatce=-500m Rd=1 Rs=1 Lambda=4m Vto=-1.799 Vtotc=-2.5m Is=24.55f Isr=240.1f N=1 Nr=2 Xti=3 Alpha=764.7u Vk=267.7 Cgd=8.8p M=500m Pb=1 Fc=500m Cgs=4.4p Kf=3.392e-002f Af=1)
.model 2N3954 NJF (Beta=768.3u Betatce=-500m Rd=1 Rs=1 Lambda=4.25m Vto=-2.033 Vtotc=-2.5m Is=24.55f Isr=240.1f N=1 Nr=2 Xti=3 Alpha=764.7u Vk=267.7 Cgd=1.71p M=500m Pb=1 Fc=500m Cgs=860f Kf=2.636e-002f Af=1)
.model 2N3954A NJF (Beta=768.3u Betatce=-500m Rd=1 Rs=1 Lambda=4.25m Vto=-2.033 Vtotc=-2.5m Is=24.55f Isr=240.1f N=1 Nr=2 Xti=3 Alpha=764.7u Vk=267.7 Cgd=1.71p M=500m Pb=1 Fc=500m Cgs=860f Kf=2.636e-002f Af=1)
.model 2N3955 NJF (Beta=768.3u Betatce=-500m Rd=1 Rs=1 Lambda=4.25m Vto=-2.033 Vtotc=-2.5m Is=24.55f Isr=240.1f N=1 Nr=2 Xti=3 Alpha=764.7u Vk=267.7 Cgd=1.71p M=500m Pb=1 Fc=500m Cgs=860f Kf=2.636e-002f Af=1)
.model 2N3955A NJF (Beta=768.3u Betatce=-500m Rd=1 Rs=1 Lambda=4.25m Vto=-2.033 Vtotc=-2.5m Is=24.55f Isr=240.1f N=1 Nr=2 Xti=3 Alpha=764.7u Vk=267.7 Cgd=1.71p M=500m Pb=1 Fc=500m Cgs=860f Kf=2.636e-002f Af=1)
.model 2N3956 NJF (Beta=768.3u Betatce=-500m Rd=1 Rs=1 Lambda=4.25m Vto=-2.033 Vtotc=-2.5m Is=24.55f Isr=240.1f N=1 Nr=2 Xti=3 Alpha=764.7u Vk=267.7 Cgd=1.71p M=500m Pb=1 Fc=500m Cgs=860f Kf=2.636e-002f Af=1)
.model 2N3957 NJF (Beta=768.3u Betatce=-500m Rd=1 Rs=1 Lambda=4.25m Vto=-2.033 Vtotc=-2.5m Is=24.55f Isr=240.1f N=1 Nr=2 Xti=3 Alpha=764.7u Vk=267.7 Cgd=1.71p M=500m Pb=1 Fc=500m Cgs=860f Kf=2.636e-002f Af=1)
.model 2N3958 NJF (Beta=768.3u Betatce=-500m Rd=1 Rs=1 Lambda=4.25m Vto=-2.033 Vtotc=-2.5m Is=24.55f Isr=240.1f N=1 Nr=2 Xti=3 Alpha=764.7u Vk=267.7 Cgd=1.71p M=500m Pb=1 Fc=500m Cgs=860f Kf=2.636e-002f Af=1)
.model 2N3966 NJF (Beta=650u Betatce=-500m Rd=1 Rs=1 Lambda=15m Vto=-4.876 Vtotc=-2.5m Is=33.57f Isr=322.4f N=1 Nr=2 Xti=3 Alpha=311.7 Vk=243.6 Cgd=1.6p M=362.2m Pb=1 Fc=500m Cgs=2.414p Kf=7.589e-003f Af=1)
.model 2N3967 NJF (Beta=754.7u Betatce=-500m Rd=1 Rs=1 Lambda=3.667m Vto=-2.49 Vtotc=-2.5m Is=181.3f Isr=1.747p N=1 Nr=2 Xti=3 Alpha=2.543u Vk=152.2 Cgd=4p M=311.4m Pb=500m Fc=500m Cgs=3.742p Kf=6.839e-003f Af=1)
.model 2N3967A NJF (Beta=754.7u Betatce=-500m Rd=1 Rs=1 Lambda=3.667m Vto=-2.49 Vtotc=-2.5m Is=181.3f Isr=1.747p N=1 Nr=2 Xti=3 Alpha=2.543u Vk=152.2 Cgd=4p M=311.4m Pb=500m Fc=500m Cgs=3.742p Kf=6.839e-003f Af=1)
.model 2N3968 NJF (Beta=1.125m Betatce=-500m Rd=1 Rs=1 Lambda=2.683m Vto=-1.376 Vtotc=-2.5m Is=181.3f Isr=1.747p N=1 Nr=2 Xti=3 Alpha=2.543u Vk=152.2 Cgd=4p M=311.4m Pb=500m Fc=500m Cgs=3.742p Kf=1.045e-002f Af=1)
.model 2N3968A NJF (Beta=1.125m Betatce=-500m Rd=1 Rs=1 Lambda=2.683m Vto=-1.376 Vtotc=-2.5m Is=181.3f Isr=1.747p N=1 Nr=2 Xti=3 Alpha=2.543u Vk=152.2 Cgd=4p M=311.4m Pb=500m Fc=500m Cgs=3.742p Kf=1.045e-002f Af=1)
.model 2N3969 NJF (Beta=1.57m Betatce=-500m Rd=1 Rs=1 Lambda=1.5m Vto=-734m Vtotc=-2.5m Is=181.3f Isr=1.747p N=1 Nr=2 Xti=3 Alpha=2.543u Vk=152.2 Cgd=4p M=311.4m Pb=500m Fc=500m Cgs=3.742p Kf=1.481e-002f Af=1)
.model 2N3969A NJF (Beta=1.57m Betatce=-500m Rd=1 Rs=1 Lambda=1.5m Vto=-734m Vtotc=-2.5m Is=181.3f Isr=1.747p N=1 Nr=2 Xti=3 Alpha=2.543u Vk=152.2 Cgd=4p M=311.4m Pb=500m Fc=500m Cgs=3.742p Kf=1.481e-002f Af=1)
.model 2N3970 NJF (Beta=4.032m Betatce=-500m Rd=1 Rs=1 Lambda=23m Vto=-4.514 Vtotc=-2.5m Is=205.2f Isr=1.988p N=1 Nr=2 Xti=3 Alpha=20.98u Vk=123.7 Cgd=10.48p M=406.9m Pb=1 Fc=500m Cgs=9.31p Kf=5.318e-002f Af=1)
.model 2N3971 NJF (Beta=6.313m Betatce=-500m Rd=1 Rs=1 Lambda=13m Vto=-2.598 Vtotc=-2.5m Is=205.2f Isr=1.988p N=1 Nr=2 Xti=3 Alpha=20.98u Vk=123.7 Cgd=10.48p M=406.9m Pb=1 Fc=500m Cgs=9.31p Kf=8.447e-002f Af=1)
.model 2N3972 NJF (Beta=9.109m Betatce=-500m Rd=1 Rs=1 Lambda=6m Vto=-1.403 Vtotc=-2.5m Is=205.2f Isr=1.988p N=1 Nr=2 Xti=3 Alpha=20.98u Vk=123.7 Cgd=10.48p M=406.9m Pb=1 Fc=500m Cgs=9.31p Kf=0.123f Af=1)
.model 2N4084 NJF (Beta=1.57m Betatce=-500m Rd=1 Rs=1 Lambda=4m Vto=-1.799 Vtotc=-2.5m Is=24.55f Isr=240.1f N=1 Nr=2 Xti=3 Alpha=764.7u Vk=267.7 Cgd=8.8p M=500m Pb=1 Fc=500m Cgs=4.4p Kf=3.392e-002f Af=1)
.model 2N4085 NJF (Beta=1.57m Betatce=-500m Rd=1 Rs=1 Lambda=4m Vto=-1.799 Vtotc=-2.5m Is=24.55f Isr=240.1f N=1 Nr=2 Xti=3 Alpha=764.7u Vk=267.7 Cgd=8.8p M=500m Pb=1 Fc=500m Cgs=4.4p Kf=3.392e-002f Af=1)
.model 2N4091 NJF (Beta=2.658m Betatce=-500m Rd=1 Rs=1 Lambda=11m Vto=-5.743 Vtotc=-2.5m Is=205.2f Isr=1.988p N=1 Nr=2 Xti=3 Alpha=20.98u Vk=123.7 Cgd=7.94p M=406.9m Pb=1 Fc=500m Cgs=7.06p Kf=3.443e-002f Af=1)
.model 2N4092 NJF (Beta=4.032m Betatce=-500m Rd=1 Rs=1 Lambda=10m Vto=-2.933 Vtotc=-2.5m Is=205.2f Isr=1.988p N=1 Nr=2 Xti=3 Alpha=20.98u Vk=123.7 Cgd=7.94p M=406.9m Pb=1 Fc=500m Cgs=7.06p Kf=5.318e-002f Af=1)
.model 2N4093 NJF (Beta=5.695m Betatce=-500m Rd=1 Rs=1 Lambda=8m Vto=-1.989 Vtotc=-2.5m Is=205.2f Isr=1.988p N=1 Nr=2 Xti=3 Alpha=20.98u Vk=123.7 Cgd=7.94p M=406.9m Pb=1 Fc=500m Cgs=7.06p Kf=7.598e-002f Af=1)
.model 2N4117 NJF (Beta=0.033m Betatce=-0.5 Vto=-1.2 Vtotc=-2.5m Lambda=13m Is=5.261f Xti=3 Isr=51.03f Nr=2 N=1 Rd=1 Rs=1 Cgd=3.94p Cgs=4.93p Fc=0.5 Vk=90.45 M=435.9m Pb=1 Kf=45610f Af=1 Mfg=Linear_Systems)
.model 2N4117A NJF (Beta=0.56m Betatce=-0.5 Vto=-1.209 Vtotc=-2.5m Lambda=7.5m Is=4.477f Xti=3 Isr=43.76f Nr=2 Alpha=18010u N=1 Rd=1 Rs=1 Cgd=4.49p Cgs=4.49p Fc=0.5 Vk=350.6 M=435.9m Pb=1 Kf=30820f Af=1 Mfg=Linear_Systems)
.model 2N4118 NJF (Beta=0.05258m Betatce=-0.5 Vto=-1.732 Vtotc=-2.5m Lambda=15m Is=5.261f Xti=3 Isr=51.03f Nr=2 Alpha=0.7979u N=1 Rd=1 Rs=1 Cgd=3.94p Cgs=4.93p Fc=0.5 Vk=90.45 M=435m Pb=1 Kf=76700f Af=1 Mfg=Linear_Systems)
.model 2N4118A NJF (Beta=0.095m Betatce=-0.5 Vto=-1.299 Vtotc=-2.5m Lambda=7.5m Is=4.477f Xti=3 Isr=43.76f Nr=2 Alpha=18010u N=1 Rd=1 Rs=1 Cgd=4.49p Cgs=4.49p Fc=0.5 Vk=350.6 M=435.9m Pb=1 Kf=76700f Af=1 Mfg=Linear_Systems)
.model 2N4119 NJF (Beta=0.068m Betatce=-0.5 Vto=-2.536 Vtotc=-2.5m Lambda=19m Is=5.261f Xti=3 Isr=51.03f Nr=2 Alpha=0.7979u N=1 Rd=1 Rs=1 Cgd=3.94p Cgs=4.93p Fc=0.5 Vk=90.45 M=435m Pb=1 Kf=101800f Af=1 Mfg=Linear_Systems)
.model 2N4119A NJF (Beta=0.022m Betatce=-0.5 Vto=-4.5 Vtotc=-2.5m Lambda=10m Is=4.477f Xti=3 Isr=43.76f Nr=2 Alpha=18010u N=1 Rd=1 Rs=1 Cgd=4.49p Cgs=4.49p Fc=0.5 Vk=350.6 M=435.9m Pb=1 Kf=101800f Af=1 Mfg=Linear_Systems)
.model 2N4220 NJF (Beta=819.8u Betatce=-500m Rd=1 Rs=1 Lambda=3.266m Vto=-1.195 Vtotc=-2.5m Is=181.3f Isr=1.747p N=1 Nr=2 Xti=3 Alpha=2.543u Vk=152.2 Cgd=4p M=311.4m Pb=500m Fc=500m Cgs=4.627p Kf=7.47e-003f Af=1)
.model 2N4220A NJF (Beta=819.8u Betatce=-500m Rd=1 Rs=1 Lambda=3.266m Vto=-1.195 Vtotc=-2.5m Is=181.3f Isr=1.747p N=1 Nr=2 Xti=3 Alpha=2.543u Vk=152.2 Cgd=4p M=311.4m Pb=500m Fc=500m Cgs=4.627p Kf=7.47e-003f Af=1)
.model 2N4221 NJF (Beta=726.3u Betatce=-500m Rd=1 Rs=1 Lambda=4.15m Vto=-2.139 Vtotc=-2.5m Is=181.3f Isr=1.747p N=1 Nr=2 Xti=3 Alpha=2.543u Vk=152.2 Cgd=4p M=311.4m Pb=500m Fc=500m Cgs=4.627p Kf=6.564e-003f Af=1)
.model 2N4221A NJF (Beta=726.3u Betatce=-500m Rd=1 Rs=1 Lambda=4.15m Vto=-2.139 Vtotc=-2.5m Is=181.3f Isr=1.747p N=1 Nr=2 Xti=3 Alpha=2.543u Vk=152.2 Cgd=4p M=311.4m Pb=500m Fc=500m Cgs=4.627p Kf=6.564e-003f Af=1)
.model 2N4222 NJF (Beta=436.4u Betatce=-500m Rd=1 Rs=1 Lambda=5.333m Vto=-4.1 Vtotc=-2.5m Is=181.3f Isr=1.747p N=1 Nr=2 Xti=3 Alpha=2.543u Vk=152.2 Cgd=4p M=311.4m Pb=500m Fc=500m Cgs=4.627p Kf=3.783e-003f Af=1)
.model 2N4222A NJF (Beta=436.4u Betatce=-500m Rd=1 Rs=1 Lambda=5.333m Vto=-4.1 Vtotc=-2.5m Is=181.3f Isr=1.747p N=1 Nr=2 Xti=3 Alpha=2.543u Vk=152.2 Cgd=4p M=311.4m Pb=500m Fc=500m Cgs=4.627p Kf=3.783e-003f Af=1)
.model 2N4223 NJF (Beta=1.04m Betatce=-500m Rd=1 Rs=1 Lambda=5.5m Vto=-3.05 Vtotc=-2.5m Is=33.57f Isr=322.4f N=1 Nr=2 Xti=3 Alpha=311.7 Vk=243.6 Cgd=1.6p M=362.2m Pb=1 Fc=500m Cgs=2.414p Kf=7.839e-003f Af=1)
.model 2N4224 NJF (Beta=1.04m Betatce=-500m Rd=1 Rs=1 Lambda=5.5m Vto=-3.12 Vtotc=-2.5m Is=33.57f Isr=322.4f N=1 Nr=2 Xti=3 Alpha=311.7 Vk=243.6 Cgd=1.6p M=362.2m Pb=1 Fc=500m Cgs=2.414p Kf=7.839e-003f Af=1)
.model 2N4338 NJF (Beta=0.781m Betatce=-0.5 Vto=-.6606 Vtotc=-2.5m Lambda=1.167m Is=114.5f Xti=3 Isr=1091f Nr=2 Alpha=506.8u N=1 Rd=1 Rs=1 Cgd=2.8p Cgs=2.916p Fc=0.5 Vk=251.7 M=227m Pb=0.5 Kf=29180f Af=1 Mfg=Linear_Systems)
.model 2N4339 NJF (Beta=555.8u Betatce=-500m Rd=1 Rs=1 Lambda=3.5m Vto=-1.218 Vtotc=-2.5m Is=114.5f Isr=1.091p N=1 Nr=2 Xti=3 Alpha=506.8u Vk=251.7 Cgd=2.8p M=227.1m Pb=500m Fc=500m Cgs=2.916p Kf=2.052e-003f Af=1)
.model 2N4340 NJF (Beta=471u Betatce=-500m Rd=1 Rs=1 Lambda=7m Vto=-2.001 Vtotc=-2.5m Is=114.5f Isr=1.091p N=1 Nr=2 Xti=3 Alpha=506.8u Vk=251.7 Cgd=2.8p M=227.1m Pb=500m Fc=500m Cgs=2.916p Kf=1.727e-003f Af=1)
.model 2N4341 NJF (Beta=387.1u Betatce=-500m Rd=1 Rs=1 Lambda=14m Vto=-3.336 Vtotc=-2.5m Is=114.5f Isr=1.091p N=1 Nr=2 Xti=3 Alpha=506.8u Vk=251.7 Cgd=2.8p M=227.1m Pb=500m Fc=500m Cgs=2.916p Kf=1.407e-003f Af=1)
.model 2N4381 PJF (Beta=2.658m Betatce=-500m Rd=1 Rs=1 Lambda=15m Vto=-1.8 Vtotc=-2.5m Is=222.4f Isr=2.177p N=1 Nr=2 Xti=3 Alpha=29.8u Vk=400.1 Cgd=6.61p M=482.2m Pb=1 Fc=500m Cgs=8.26p Kf=1.17f Af=1)
.model 2N4391 NJF (Beta=3.084m Betatce=-0.5 Vto=-5.27 Vtotc=-2.5m Lambda=17.5m Is=205.2f Xti=3 Isr=1988f Nr=2 Alpha=20.98u N=1 Rd=1 Rs=1 Cgd=5.35p Cgs=4.76p Fc=0.5 Vk=123.7 M=407m Pb=1 Kf=40230f Af=1 Mfg=Linear_Systems)
.model 2N4392 NJF (Beta=5.816m Betatce=-0.5 Vto=-2.808 Vtotc=-2.5m Lambda=12m Is=205.2f Xti=3 Isr=1988f Nr=2 Alpha=20.98u N=1 Rd=1 Rs=1 Cgd=4.83p Cgs=4.29p Fc=0.5 Vk=123.7 M=407m Pb=1 Kf=77640f Af=1 Mfg=Linear_Systems)
.model 2N4393 NJF (Beta=9.109m Betatce=-0.5 Vto=-1.422 Vtotc=-2.5m Lambda=6m Is=205.2f Xti=3 Isr=1988f Nr=2 Alpha=20.98u N=1 Rd=1 Rs=1 Cgd=4.57p Cgs=4.06p Fc=0.5 Vk=123.7 M=407m Pb=1 Kf=12300f Af=1 Mfg=Linear_Systems)
.model 2N4416 NJF (Beta=0.989m Betatce=-0.5 Vto=-3.07 Vtotc=-2.5m Lambda=5.5m Is=33.57f Xti=3 Isr=322.4f Nr=2 Alpha=311.7u N=1 Rd=1 Rs=1 Cgd=1.6p Cgs=2.414p Fc=0.5 Vk=243.6 M=362m Pb=1 Kf=74450f Af=1 Mfg=Linear_Systems)
.model 2N4416A NJF (Beta=989.4u Betatce=-500m Rd=1 Rs=1 Lambda=5.5m Vto=-3.06 Vtotc=-2.5m Is=33.57f Isr=322.4f N=1 Nr=2 Xti=3 Alpha=311.7 Vk=243.6 Cgd=1.6p M=362.2m Pb=1 Fc=500m Cgs=2.414p Kf=7.445e-003f Af=1)
.model 2N4856 NJF (Beta=3.084m Betatce=-500m Rd=1 Rs=1 Lambda=11m Vto=-5.517 Vtotc=-2.5m Is=205.2f Isr=1.988p N=1 Nr=2 Xti=3 Alpha=20.98u Vk=123.7 Cgd=15.92p M=406.9m Pb=1 Fc=500m Cgs=14.16p Kf=4.023e-002f Af=1)
.model 2N4856A NJF (Beta=3.084m Betatce=-500m Rd=1 Rs=1 Lambda=11m Vto=-5.517 Vtotc=-2.5m Is=205.2f Isr=1.988p N=1 Nr=2 Xti=3 Alpha=20.98u Vk=123.7 Cgd=5.71p M=406.9m Pb=1 Fc=500m Cgs=5.07p Kf=4.023e-002f Af=1)
.model 2N4857 NJF (Beta=6.313m Betatce=-500m Rd=1 Rs=1 Lambda=9.5m Vto=-3.05 Vtotc=-2.5m Is=205.2f Isr=1.988p N=1 Nr=2 Xti=3 Alpha=20.98u Vk=123.7 Cgd=15.92p M=406.9m Pb=1 Fc=500m Cgs=14.16p Kf=8.447e-002f Af=1)
.model 2N4857A NJF (Beta=6.313m Betatce=-500m Rd=1 Rs=1 Lambda=9.5m Vto=-3.05 Vtotc=-2.5m Is=205.2f Isr=1.988p N=1 Nr=2 Xti=3 Alpha=20.98u Vk=123.7 Cgd=5.34p M=406.9m Pb=1 Fc=500m Cgs=4.74p Kf=8.447e-002f Af=1)
.model 2N4858 NJF (Beta=7.646m Betatce=-500m Rd=1 Rs=1 Lambda=8m Vto=-2.387 Vtotc=-2.5m Is=205.2f Isr=1.988p N=1 Nr=2 Xti=3 Alpha=20.98u Vk=123.7 Cgd=15.92p M=406.9m Pb=1 Fc=500m Cgs=14.16p Kf=0.1028f Af=1)
.model 2N4858A NJF (Beta=7.646m Betatce=-500m Rd=1 Rs=1 Lambda=8m Vto=-2.387 Vtotc=-2.5m Is=205.2f Isr=1.988p N=1 Nr=2 Xti=3 Alpha=20.98u Vk=123.7 Cgd=5.34p M=406.9m Pb=1 Fc=500m Cgs=4.74p Kf=0.1028f Af=1)
.model 2N4859 NJF (Beta=3.084m Betatce=-500m Rd=1 Rs=1 Lambda=12m Vto=-5.431 Vtotc=-2.5m Is=205.2f Isr=1.988p N=1 Nr=2 Xti=3 Alpha=20.98u Vk=123.7 Cgd=15.92p M=406.9m Pb=1 Fc=500m Cgs=14.16p Kf=4.023e-002f Af=1)
.model 2N4859A NJF (Beta=3.084m Betatce=-500m Rd=1 Rs=1 Lambda=12m Vto=-5.431 Vtotc=-2.5m Is=205.2f Isr=1.988p N=1 Nr=2 Xti=3 Alpha=20.98u Vk=123.7 Cgd=5.71p M=406.9m Pb=1 Fc=500m Cgs=5.07p Kf=4.023e-002f Af=1)
.model 2N4860 NJF (Beta=6.313m Betatce=-500m Rd=1 Rs=1 Lambda=10m Vto=-2.998 Vtotc=-2.5m Is=205.2f Isr=1.988p N=1 Nr=2 Xti=3 Alpha=20.98u Vk=123.7 Cgd=15.92p M=406.9m Pb=1 Fc=500m Cgs=14.16p Kf=8.447e-002f Af=1)
.model 2N4860A NJF (Beta=6.313m Betatce=-500m Rd=1 Rs=1 Lambda=10m Vto=-2.998 Vtotc=-2.5m Is=205.2f Isr=1.988p N=1 Nr=2 Xti=3 Alpha=20.98u Vk=123.7 Cgd=5.34p M=406.9m Pb=1 Fc=500m Cgs=4.74p Kf=8.447e-002f Af=1)
.model 2N4861 NJF (Beta=8.362m Betatce=-500m Rd=1 Rs=1 Lambda=8m Vto=-2.308 Vtotc=-2.5m Is=205.2f Isr=1.988p N=1 Nr=2 Xti=3 Alpha=20.98u Vk=123.7 Cgd=15.92p M=406.9m Pb=1 Fc=500m Cgs=14.16p Kf=0.1127f Af=1)
.model 2N4861A NJF (Beta=8.362m Betatce=-500m Rd=1 Rs=1 Lambda=8m Vto=-2.308 Vtotc=-2.5m Is=205.2f Isr=1.988p N=1 Nr=2 Xti=3 Alpha=20.98u Vk=123.7 Cgd=5.34p M=406.9m Pb=1 Fc=500m Cgs=4.74p Kf=0.1127f Af=1)
.model 2N4867 NJF (Beta=609.1u Betatce=-500m Rd=1 Rs=1 Lambda=7m Vto=-1.145 Vtotc=-2.5m Is=29.04f Isr=281.9f N=1 Nr=2 Xti=3 Alpha=698u Vk=270.4 Cgd=8p M=360.1m Pb=1 Fc=500m Cgs=12p Kf=4.832e-002f Af=1)
.model 2N4867A NJF (Beta=609.1u Betatce=-500m Rd=1 Rs=1 Lambda=7m Vto=-1.145 Vtotc=-2.5m Is=29.04f Isr=281.9f N=1 Nr=2 Xti=3 Alpha=698u Vk=270.4 Cgd=8p M=360.1m Pb=1 Fc=500m Cgs=12p Kf=5.415e-003f Af=1)
.model 2N4868 NJF (Beta=768.3u Betatce=-500m Rd=1 Rs=1 Lambda=6.667m Vto=-1.643 Vtotc=-2.5m Is=29.04f Isr=281.9f N=1 Nr=2 Xti=3 Alpha=698u Vk=270.4 Cgd=8p M=360.1m Pb=1 Fc=500m Cgs=12p Kf=0.1022f Af=1)
.model 2N4868A NJF (Beta=768.3u Betatce=-500m Rd=1 Rs=1 Lambda=6.667m Vto=-1.643 Vtotc=-2.5m Is=29.04f Isr=281.9f N=1 Nr=2 Xti=3 Alpha=698u Vk=270.4 Cgd=8p M=360.1m Pb=1 Fc=500m Cgs=12p Kf=1.019e-002f Af=1)
.model 2N4869 NJF (Beta=885.7u Betatce=-500m Rd=1 Rs=1 Lambda=10m Vto=-2.512 Vtotc=-2.5m Is=29.04f Isr=281.9f N=1 Nr=2 Xti=3 Alpha=698u Vk=270.4 Cgd=8p M=360.1m Pb=1 Fc=500m Cgs=12p Kf=0.1199f Af=1)
.model 2N4869A NJF (Beta=885.7u Betatce=-500m Rd=1 Rs=1 Lambda=10m Vto=-2.512 Vtotc=-2.5m Is=29.04f Isr=281.9f N=1 Nr=2 Xti=3 Alpha=698u Vk=270.4 Cgd=8p M=360.1m Pb=1 Fc=500m Cgs=12p Kf=1.391e-002f Af=1)
.model 2N5018 PJF (Beta=0.773m Betatce=-0.5 Vto=-4.15 Vtotc=-2.5m Lambda=40m Is=461.5f Xti=3 Isr=4402f Nr=2 Alpha=32.54u N=1 Rd=1 Rs=1 Cgd=6.5p Cgs=9p Fc=0.5 Vk=393.2 M=279m Pb=1 Kf=4993f Af=1 Mfg=Linear_Systems)
.model 2N5019 PJF (Beta=1.775m Betatce=-0.5 Vto=-2.229 Vtotc=-2.5m Lambda=24m Is=461.5f Xti=3 Isr=4402f Nr=2 Alpha=32.54u N=1 Rd=1 Rs=1 Cgd=6.5p Cgs=9p Fc=0.5 Vk=393.2 M=279m Pb=1 Kf=0.1145f Af=1 Mfg=Linear_Systems)
.model 2N5020 PJF (Beta=1.004m Betatce=-500m Rd=1 Rs=1 Lambda=10m Vto=-840.6m Vtotc=-2.5m Is=222.4f Isr=2.177p N=1 Nr=2 Xti=3 Alpha=29.8u Vk=400.1 Cgd=8.55p M=482.2m Pb=1 Fc=500m Cgs=10.68p Kf=0.5567f Af=1)
.model 2N5021 PJF (Beta=2.658m Betatce=-500m Rd=1 Rs=1 Lambda=12m Vto=-999.6m Vtotc=-2.5m Is=222.4f Isr=2.177p N=1 Nr=2 Xti=3 Alpha=29.8u Vk=400.1 Cgd=8.55p M=482.2m Pb=1 Fc=500m Cgs=10.68p Kf=1.544f Af=1)
.model 2N5045 NJF (Beta=1.271m Betatce=-500m Rd=1 Rs=1 Lambda=3.5m Vto=-1.95 Vtotc=-2.5m Is=24.55f Isr=240.1f N=1 Nr=2 Xti=3 Alpha=764.7u Vk=267.7 Cgd=5.71p M=500m Pb=1 Fc=500m Cgs=2.85p Kf=4.518e-002f Af=1)
.model 2N5046 NJF (Beta=1.271m Betatce=-500m Rd=1 Rs=1 Lambda=3.5m Vto=-1.95 Vtotc=-2.5m Is=24.55f Isr=240.1f N=1 Nr=2 Xti=3 Alpha=764.7u Vk=267.7 Cgd=5.71p M=500m Pb=1 Fc=500m Cgs=2.85p Kf=4.518e-002f Af=1)
.model 2N5047 NJF (Beta=1.271m Betatce=-500m Rd=1 Rs=1 Lambda=3.5m Vto=-1.95 Vtotc=-2.5m Is=24.55f Isr=240.1f N=1 Nr=2 Xti=3 Alpha=764.7u Vk=267.7 Cgd=5.71p M=500m Pb=1 Fc=500m Cgs=2.85p Kf=4.518e-002f Af=1)
.model 2N5078 NJF (Beta=850.8u Betatce=-500m Rd=1 Rs=1 Lambda=6.75m Vto=-3.97 Vtotc=-2.5m Is=33.57f Isr=322.4f N=1 Nr=2 Xti=3 Alpha=311.7 Vk=243.6 Cgd=1.6p M=362.2m Pb=1 Fc=500m Cgs=2.414p Kf=6.375e-003f Af=1)
.model 2N5103 NJF (Beta=1.426m Betatce=-500m Rd=1 Rs=1 Lambda=3.167m Vto=-1.85 Vtotc=-2.5m Is=33.57f Isr=322.4f N=1 Nr=2 Xti=3 Alpha=311.7 Vk=243.6 Cgd=1.6p M=362.2m Pb=1 Fc=500m Cgs=2.414p Kf=1.082e-002f Af=1)
.model 2N5104 NJF (Beta=1.914m Betatce=-500m Rd=1 Rs=1 Lambda=3.167m Vto=-1.51 Vtotc=-2.5m Is=33.57f Isr=322.4f N=1 Nr=2 Xti=3 Alpha=311.7 Vk=243.6 Cgd=1.6p M=362.2m Pb=1 Fc=500m Cgs=2.414p Kf=1.462e-002f Af=1)
.model 2N5105 NJF (Beta=1.464m Betatce=-500m Rd=1 Rs=1 Lambda=3.167m Vto=-2.5 Vtotc=-2.5m Is=33.57f Isr=322.4f N=1 Nr=2 Xti=3 Alpha=311.7 Vk=243.6 Cgd=1.6p M=362.2m Pb=1 Fc=500m Cgs=2.414p Kf=1.111e-002f Af=1)
.model 2N5114 PJF (Beta=0.510m Betatce=-0.5 Vto=-8.095 Vtotc=-2.5m Lambda=40m Is=461.5f Xti=3 Isr=4402f Nr=2 Alpha=32.54u N=1 Rd=1 Rs=1 Cgd=6.5p Cgs=9p Fc=0.5 Vk=393.2 M=279m Pb=1 Kf=32960f Af=1 Mfg=Linear_Systems)
.model 2N5115 PJF (Beta=1.031m Betatce=-0.5 Vto=-4.896 Vtotc=-2.5m Lambda=32m Is=461.5f Xti=3 Isr=4402f Nr=2 Alpha=32.54u N=1 Rd=1 Rs=1 Cgd=6.5p Cgs=9p Fc=0.5 Vk=393.2 M=278m Pb=1 Kf=66610f Af=1 Mfg=Linear_Systems)
.model 2N5116 PJF (Beta=1.71m Betatce=-0.5 Vto=-2.373 Lambda=25m Is=461.5f Xti=3 Nr=2 N=1 Rd=1 Rs=1 Cgd=6.5p Cgs=9p Fc=0.5 Pb=1 Af=1 Mfg=Linear_Systems)
.model 2N5196 NJF (Beta=812.9u Betatce=-500m Rd=1 Rs=1 Lambda=5m Vto=-2.257 Vtotc=-2.5m Is=24.55f Isr=240.1f N=1 Nr=2 Xti=3 Alpha=764.7u Vk=267.7 Cgd=3.28p M=500m Pb=1 Fc=500m Cgs=1.64p Kf=3.664e-003f Af=1)
.model 2N5197 NJF (Beta=812.9u Betatce=-500m Rd=1 Rs=1 Lambda=5m Vto=-2.257 Vtotc=-2.5m Is=24.55f Isr=240.1f N=1 Nr=2 Xti=3 Alpha=764.7u Vk=267.7 Cgd=3.28p M=500m Pb=1 Fc=500m Cgs=1.64p Kf=3.664e-003f Af=1)
.model 2N5198 NJF (Beta=812.9u Betatce=-500m Rd=1 Rs=1 Lambda=5m Vto=-2.257 Vtotc=-2.5m Is=24.55f Isr=240.1f N=1 Nr=2 Xti=3 Alpha=764.7u Vk=267.7 Cgd=3.28p M=500m Pb=1 Fc=500m Cgs=1.64p Kf=3.664e-003f Af=1)
.model 2N5199 NJF (Beta=812.9u Betatce=-500m Rd=1 Rs=1 Lambda=5m Vto=-2.257 Vtotc=-2.5m Is=24.55f Isr=240.1f N=1 Nr=2 Xti=3 Alpha=764.7u Vk=267.7 Cgd=3.28p M=500m Pb=1 Fc=500m Cgs=1.64p Kf=3.664e-003f Af=1)
.model 2N5245 NJF (Beta=1.38m Betatce=-500m Rd=1 Rs=1 Lambda=8m Vto=-2.442 Vtotc=-2.5m Is=101.9f Isr=977.5f N=1 Nr=2 Xti=3 Alpha=13.92u Vk=88.13 Cgd=3p M=344.8m Pb=1 Fc=500m Cgs=3.383p Kf=2.168e-002f Af=1)
.model 2N5246 NJF (Beta=1.948m Betatce=-500m Rd=1 Rs=1 Lambda=7.716m Vto=-1.257 Vtotc=-2.5m Is=101.9f Isr=977.5f N=1 Nr=2 Xti=3 Alpha=13.92u Vk=88.13 Cgd=3p M=344.8m Pb=1 Fc=500m Cgs=3.383p Kf=3.053e-002f Af=1)
.model 2N5247 NJF (Beta=1.07m Betatce=-500m Rd=1 Rs=1 Lambda=10m Vto=-3.485 Vtotc=-2.5m Is=101.9f Isr=977.5f N=1 Nr=2 Xti=3 Alpha=13.92u Vk=88.13 Cgd=3p M=344.8m Pb=1 Fc=500m Cgs=3.383p Kf=1.683e-002f Af=1)
.model 2N5248 NJF (Beta=849.6u Betatce=-500m Rd=1 Rs=1 Lambda=6.25m Vto=-3.6 Vtotc=-2.5m Is=33.57f Isr=322.4f N=1 Nr=2 Xti=3 Alpha=311.7 Vk=243.6 Cgd=1.6p M=362.2m Pb=1 Fc=500m Cgs=2.414p Kf=6.36e-003f Af=1)
.model 2N5358 NJF (Beta=1.064m Betatce=-500m Rd=1 Rs=1 Lambda=2.571m Vto=-800.5m Vtotc=-2.5m Is=181.3f Isr=1.747p N=1 Nr=2 Xti=3 Alpha=2.543u Vk=152.2 Cgd=4p M=311.4m Pb=500m Fc=500m Cgs=4.627p Kf=9.852e-003f Af=1)
.model 2N5359 NJF (Beta=760m Betatce=-500m Rd=1 Rs=1 Lambda=3m Vto=-1.12 Vtotc=-2.5m Is=181.3f Isr=1.747p N=1 Nr=2 Xti=3 Alpha=2.543u Vk=152.2 Cgd=4p M=311.4m Pb=500m Fc=500m Cgs=4.627p Kf=1.027e-002f Af=1)
.model 2N5360 NJF (Beta=698.5u Betatce=-500m Rd=1 Rs=1 Lambda=3m Vto=-1.703 Vtotc=-2.5m Is=181.3f Isr=1.747p N=1 Nr=2 Xti=3 Alpha=2.543u Vk=152.2 Cgd=4p M=311.4m Pb=500m Fc=500m Cgs=4.627p Kf=6.296e-003f Af=1)
.model 2N5361 NJF (Beta=479.8u Betatce=-500m Rd=1 Rs=1 Lambda=3.75m Vto=-2.659 Vtotc=-2.5m Is=181.3f Isr=1.747p N=1 Nr=2 Xti=3 Alpha=2.543u Vk=152.2 Cgd=4p M=311.4m Pb=500m Fc=500m Cgs=4.627p Kf=4.196e-003f Af=1)
.model 2N5362 NJF (Beta=425u Betatce=-500m Rd=1 Rs=1 Lambda=4.2m Vto=-3.312 Vtotc=-2.5m Is=181.3f Isr=1.747p N=1 Nr=2 Xti=3 Alpha=2.543u Vk=152.2 Cgd=4p M=311.4m Pb=500m Fc=500m Cgs=4.627p Kf=4.288e-003f Af=1)
.model 2N5363 NJF (Beta=381.8u Betatce=-500m Rd=1 Rs=1 Lambda=5.333m Vto=-4.91 Vtotc=-2.5m Is=181.3f Isr=1.747p N=1 Nr=2 Xti=3 Alpha=2.543u Vk=152.2 Cgd=4p M=311.4m Pb=500m Fc=500m Cgs=4.627p Kf=3.266e-003f Af=1)
.model 2N5364 NJF (Beta=347.6u Betatce=-500m Rd=1 Rs=1 Lambda=5.333m Vto=-5.835 Vtotc=-2.5m Is=181.3f Isr=1.747p N=1 Nr=2 Xti=3 Alpha=2.543u Vk=152.2 Cgd=4p M=311.4m Pb=500m Fc=500m Cgs=4.627p Kf=2.945e-003f Af=1)
.model 2N5397 NJF (Beta=1.242m Betatce=-500m Rd=1 Rs=1 Lambda=8m Vto=-3.679 Vtotc=-2.5m Is=101.9f Isr=977.5f N=1 Nr=2 Xti=3 Alpha=13.92u Vk=88.13 Cgd=2.6p M=344.8m Pb=1 Fc=500m Cgs=3.598p Kf=1.952e-002f Af=1)
.model 2N5398 NJF (Beta=1.242m Betatce=-500m Rd=1 Rs=1 Lambda=8m Vto=-3.323 Vtotc=-2.5m Is=101.9f Isr=977.5f N=1 Nr=2 Xti=3 Alpha=13.92u Vk=88.13 Cgd=3p M=344.8m Pb=1 Fc=500m Cgs=3.383p Kf=1.952e-002f Af=1)
.model 2N5432 NJF (Beta=9.109m Betatce=-.5 Rd=1 Rs=1 Lambda=50m Vto=-5.397 Vtotc=-2.5m Is=533.7f Isr=5.174p N=1 Nr=2 Xti=3 Alpha=152.8u Vk=111.9 Cgd=35.6p M=.4283 Pb=1 Fc=.5 Cgs=35.6p Kf=124.3E-18 Af=1 mfg=Fairchild)
.model 2N5433 NJF (Beta=12.42m Betatce=-500m Rd=1 Rs=1 Lambda=40m Vto=-4.16 Vtotc=-2.5m Is=533.7f Isr=5.174p N=1 Nr=2 Xti=3 Alpha=152.8u Vk=111.9 Cgd=35.6p M=428.3m Pb=1 Fc=500m Cgs=35.6p Kf=0.1699f Af=1)
.model 2N5434 NJF (Beta=18m Betatce=-.5 Rd=1 Rs=1 Lambda=25m Vto=-1.9 Vtotc=-2.5m Is=.5p Isr=5p Alpha=150u Vk=110 Cgd=35p M=.4283 Cgs=35p mfg=Vishay)
.model 2N5452 NJF (Beta=768.3u Betatce=-500m Rd=1 Rs=1 Lambda=2.5m Vto=-2.017 Vtotc=-2.5m Is=24.55f Isr=240.1f N=1 Nr=2 Xti=3 Alpha=764.7u Vk=267.7 Cgd=1.71p M=500m Pb=1 Fc=500m Cgs=860f Kf=3.664e-003f Af=1)
.model 2N5453 NJF (Beta=768.3u Betatce=-500m Rd=1 Rs=1 Lambda=2.5m Vto=-2.017 Vtotc=-2.5m Is=24.55f Isr=240.1f N=1 Nr=2 Xti=3 Alpha=764.7u Vk=267.7 Cgd=1.71p M=500m Pb=1 Fc=500m Cgs=860f Kf=3.664e-003f Af=1)
.model 2N5454 NJF (Beta=768.3u Betatce=-500m Rd=1 Rs=1 Lambda=2.5m Vto=-2.017 Vtotc=-2.5m Is=24.55f Isr=240.1f N=1 Nr=2 Xti=3 Alpha=764.7u Vk=267.7 Cgd=1.71p M=500m Pb=1 Fc=500m Cgs=860f Kf=3.664e-003f Af=1)
.model 2N5457 NJF (Beta=1.125m Betatce=-500m Rd=1 Rs=1 Lambda=2.3m Vto=-1.372 Vtotc=-2.5m Is=181.3f Isr=1.747p N=1 Nr=2 Xti=3 Alpha=2.543u Vk=152.2 Cgd=4p M=311.4m Pb=500m Fc=500m Cgs=4.627p Kf=1.045e-002f Af=1)
.model 2N5458 NJF (Beta=488.9u Betatce=-500m Rd=1 Rs=1 Lambda=3.167m Vto=-2.882 Vtotc=-2.5m Is=181.3f Isr=1.747p N=1 Nr=2 Xti=3 Alpha=2.543u Vk=152.2 Cgd=4p M=311.4m Pb=500m Fc=500m Cgs=4.627p Kf=4.284e-003f Af=1)
.model 2N5459 NJF (Beta=377.6u Betatce=-500m Rd=1 Rs=1 Lambda=4.167m Vto=-4.473 Vtotc=-2.5m Is=181.3f Isr=1.747p N=1 Nr=2 Xti=3 Alpha=2.543u Vk=152.2 Cgd=4p M=311.4m Pb=500m Fc=500m Cgs=4.627p Kf=3.227e-003f Af=1)
.model 2N5460 PJF (Is=1.5p Alpha=1e-4 Vk=300 Vto=-3.4 Vtotc=-3m Beta=1.0m Lambda=10m Betatce=-.5 Rd=10 Rs=10 Cgs=5p Cgd=5p Kf=3e-17 mfg=Siliconix)
.model 2N5461 PJF (Is=1.5p Alpha=1e-4 Vk=300 Vto=-4.3 Vtotc=-3m Beta=1.5m Lambda=10m Betatce=-.5 Rd=10 Rs=10 Cgs=5p Cgd=5p Kf=3e-17 mfg=Siliconix)
.model 2N5462 PJF (Is=1.5p Alpha=1e-4 Vk=300 Vto=-5.4 Vtotc=-3m Beta=2.0m Lambda=10m Betatce=-.5 Rd=10 Rs=10 Cgs=5p Cgd=5p Kf=3e-17 mfg=Siliconix)
.model 2N5484 NJF (Is=.25p Alpha=1e-4 Vk=80 Vto=-1.5 Vtotc=-3m Beta=3.0m Lambda=10m Betatce=-.5 Rd=10 Rs=10 Cgs=4p Cgd=4p Kf=3e-17 mfg=Siliconix)
.model 2N5485 NJF (Is=.25p Alpha=1e-4 Vk=80 Vto=-2.0 Vtotc=-3m Beta=3.5m Lambda=10m Betatce=-.5 Rd=10 Rs=10 Cgs=4p Cgd=4p Kf=3e-17 mfg=Siliconix)
.model 2N5486 NJF (Is=.25p Alpha=1e-4 Vk=80 Vto=-4.0 Vtotc=-3m Beta=4.0m Lambda=10m Betatce=-.5 Rd=10 Rs=10 Cgs=4p Cgd=4p Kf=3e-17 mfg=Siliconix)
.model 2N5515 NJF (Beta=518.5u Betatce=-500m Rd=1 Rs=1 Lambda=300u Vto=-2.5 Vtotc=-2.5m Is=52.8f Isr=517.3f N=1 Nr=2 Xti=3 Alpha=19.01u Vk=251.2 Cgd=8p M=489.3m Pb=500m Fc=500m Cgs=14.64p Kf=1.72e-002f Af=1)
.model 2N5516 NJF (Beta=518.5u Betatce=-500m Rd=1 Rs=1 Lambda=300u Vto=-2.5 Vtotc=-2.5m Is=52.8f Isr=517.3f N=1 Nr=2 Xti=3 Alpha=19.01u Vk=251.2 Cgd=8p M=489.3m Pb=500m Fc=500m Cgs=14.64p Kf=1.72e-002f Af=1)
.model 2N5517 NJF (Beta=518.5u Betatce=-500m Rd=1 Rs=1 Lambda=300u Vto=-2.5 Vtotc=-2.5m Is=52.8f Isr=517.3f N=1 Nr=2 Xti=3 Alpha=19.01u Vk=251.2 Cgd=8p M=489.3m Pb=500m Fc=500m Cgs=14.64p Kf=1.72e-002f Af=1)
.model 2N5518 NJF (Beta=518.5u Betatce=-500m Rd=1 Rs=1 Lambda=300u Vto=-2.5 Vtotc=-2.5m Is=52.8f Isr=517.3f N=1 Nr=2 Xti=3 Alpha=19.01u Vk=251.2 Cgd=8p M=489.3m Pb=500m Fc=500m Cgs=14.64p Kf=1.72e-002f Af=1)
.model 2N5519 NJF (Beta=518.5u Betatce=-500m Rd=1 Rs=1 Lambda=300u Vto=-2.5 Vtotc=-2.5m Is=52.8f Isr=517.3f N=1 Nr=2 Xti=3 Alpha=19.01u Vk=251.2 Cgd=8p M=489.3m Pb=500m Fc=500m Cgs=14.64p Kf=1.72e-002f Af=1)
.model 2N5520 NJF (Beta=518.5u Betatce=-500m Rd=1 Rs=1 Lambda=300u Vto=-2.5 Vtotc=-2.5m Is=52.8f Isr=517.3f N=1 Nr=2 Xti=3 Alpha=19.01u Vk=251.2 Cgd=8p M=489.3m Pb=500m Fc=500m Cgs=14.64p Kf=3.9e-003f Af=1)
.model 2N5521 NJF (Beta=518.5u Betatce=-500m Rd=1 Rs=1 Lambda=300u Vto=-2.5 Vtotc=-2.5m Is=52.8f Isr=517.3f N=1 Nr=2 Xti=3 Alpha=19.01u Vk=251.2 Cgd=8p M=489.3m Pb=500m Fc=500m Cgs=14.64p Kf=3.9e-003f Af=1)
.model 2N5522 NJF (Beta=518.5u Betatce=-500m Rd=1 Rs=1 Lambda=300u Vto=-2.5 Vtotc=-2.5m Is=52.8f Isr=517.3f N=1 Nr=2 Xti=3 Alpha=19.01u Vk=251.2 Cgd=8p M=489.3m Pb=500m Fc=500m Cgs=14.64p Kf=3.9e-003f Af=1)
.model 2N5523 NJF (Beta=518.5u Betatce=-500m Rd=1 Rs=1 Lambda=300u Vto=-2.5 Vtotc=-2.5m Is=52.8f Isr=517.3f N=1 Nr=2 Xti=3 Alpha=19.01u Vk=251.2 Cgd=8p M=489.3m Pb=500m Fc=500m Cgs=14.64p Kf=3.9e-003f Af=1)
.model 2N5524 NJF (Beta=518.5u Betatce=-500m Rd=1 Rs=1 Lambda=300u Vto=-2.5 Vtotc=-2.5m Is=52.8f Isr=517.3f N=1 Nr=2 Xti=3 Alpha=19.01u Vk=251.2 Cgd=8p M=489.3m Pb=500m Fc=500m Cgs=14.64p Kf=3.9e-003f Af=1)
.model 2N5545 NJF (Beta=1.271m Betatce=-500m Rd=1 Rs=1 Lambda=4m Vto=-2 Vtotc=-2.5m Is=24.55f Isr=240.1f N=1 Nr=2 Xti=3 Alpha=764.7u Vk=267.7 Cgd=3.28p M=500m Pb=1 Fc=500m Cgs=1.64p Kf=5.584e-002f Af=1)
.model 2N5546 NJF (Beta=1.271m Betatce=-500m Rd=1 Rs=1 Lambda=4m Vto=-2 Vtotc=-2.5m Is=24.55f Isr=240.1f N=1 Nr=2 Xti=3 Alpha=764.7u Vk=267.7 Cgd=3.28p M=500m Pb=1 Fc=500m Cgs=1.64p Kf=6.752e-002f Af=1)