* Copyright (c) 2000-2020 Linear Technology Corporation.   All rights reserved.
*
.model AA112 D (Is=1.2u n=1.4 rs=80 cjo=1.2p TT=18n eg=0.69 type=germanium)
.model AEG_AA112 D (IS=2.777779u RS=35.67365 BV=20 IBV=0.0022 CJO=1p TT=1p M=0.5 VJ=1 N=2.172326 EG=0.67 FC=0.5 type=germanium)
.model AEG_AA117 D (IS=1.111111E-05 RS=46.02731 BV=115 IBV=0.006 CJO=1p TT=1p ISR=1.581139E-06 M=0.5 VJ=0.5 N=3.542911 IKF=0.03 NR=29.56001 EG=0.67 FC=0.5 XTI=3.012615 NBV=14.78 IBVL=0.00007 NBVL=22.17001 type=germanium)
.model OA90-G D (Is=54.12u N=4.209 Rs=42.72 Ikf=0 Xti=3 Eg=1.11 Cjo=1p M=.3333 Vj=.75 Fc=.5 Isr=13.54E-21 Nr=4.62 Bv=22.5 Ibv=100u TT=5n type=germanium)
.model OA90-M D (Is=120.5u N=7.405 Rs=48.89 Ikf=0 Xti=3 Eg=1.11 Cjo=1p M=.3333 Vj=.75 Fc=.5 Isr=10.36E-21 Nr=4.99 Bv=40 Ibv=100u TT=5n type=germanium)
.model OA91 D (Is=19.43u N=2.986 Rs=65.98 Ikf=0 Xti=3 Eg=1.11 Cjo=1.326p M=.3333 Vj=.75 Fc=.5 Isr=2.787u Nr=1.954 Bv=100 Ibv=100u TT=5n type=germanium)
.model OA95 D (Is=68.06u N=4.056 Rs=45.41 Ikf=78.67 Xti=3 Cjo=1.326p M=.3333 Vj=.75 Fc=.5 Isr=10.42E-21 Nr=4.612 Bv=100 Ibv=100u TT=5n type=germanium)
.model OR8GU41 D (Is=23.09m N=3.32 Rs=91.49m Ikf=3.382u Xti=3 Eg=1.11 Cjo=134.9p M=.5693 Vj=2.559 Fc=.5 Isr=100p Nr=2 Bv=400 Ibv=100u TT=144.3n)
.model D18 D (IS=4u N=2.15 RS=17 m=0.124 Vj=0.1 Cjo=0.67pF IBV=2u BV=20 TT=5n EG=0.67 XTI=3 Iave=16m Vpk=20 mfg=USSR type=germanium)
.model D237A D (Is=31.69p N=1 Rs=91.07m Cjo=13p TT=721.3n M=0.25 Vj=0.75 Fc=0.5 Bv=200 IBv=1e-11 Eg=1.11 Xti=3 mfg=USSR type=silicon)
.model D237B D (Is=31.69p Rs=91.07m N=1 Xti=3 Eg=1.11 Bv=400.1 Ibv=158.5u Cjo=15p Vj=.75 M=.3333 Fc=.5 TT=721.3n mfg=USSR type=silicon)
.model D237E D (Is=28.72p Rs=51.27m N=1 Xti=3 Eg=1.11 Bv=200.1 Ibv=158.5u Cjo=15p Vj=.75 M=.3333 Fc=.5 TT=721.3n mfg=USSR type=silicon)
.model D237J D (Is=28.72p Rs=51.27m N=1 Xti=3 Eg=1.11 Bv=400.1 Ibv=158.5u Cjo=15p Vj=.75 M=.3333 Fc=.5 TT=721.3n mfg=USSR type=silicon)
.model D237V D (Is=76.09p Rs=.4451 N=1 Xti=3 Eg=1.11 Bv=600.1 Ibv=158.5u Cjo=15p Vj=.75 M=.3333 Fc=.5 TT=721.3n mfg=USSR type=silicon)
.model D310 D (IS=2.5u N=1.437 RS=0.07 m=0.314 Vj=1.65 Cjo=14pF IBV=5u BV=20 TT=130n EG=0.67 XTI=3 Iave=500m Vpk=20 mfg=USSR type=germanium)
.model D311A D (IS=8u N=1.483 RS=1.85 m=0.22 Vj=0.1 Cjo=3.5pF IBV=1.00E-04 BV=30 TT=20n EG=0.67 XTI=3 Iave=80m Vpk=30 mfg=USSR type=germanium)
.model 1N34A D (IS=2.6u RS=6.5 N=1.6 CJO=0.8p EG=0.67 BV=75 IBV=1m Type=GePunctualContact)
.model 1N60 D (RS=50.0559 EG=1.11 XTI=3 VJ=0.8 M=0.1 FC=0.5 BV=40 CJO=1.75p IS=1.37773u N=2 TT=100n type=germanium)
.model 1N746 D (Is=31.47f Rs=9.494 Ikf=0 N=1 Xti=3 Eg=1.11 Cjo=220p M=.5959 Vj=.75 Fc=.5 Isr=2.035n Nr=2 Bv=3.3 Ibv=45.862m Nbv=3.0477 Ibvl=29.831m Nbvl=11.606 TBv1=-636.4u)
.model 1N747 D (Is=1.242f Rs=1.137 Ikf=0 N=1 Xti=3 Eg=1.11 Cjo=210p M=.6063 Vj=.75 Fc=.5 Isr=1.922n Nr=2 Bv=3.6 Ibv=13.987m Nbv=3.031 Ibvl=10.212m Nbvl=12.73 TBv1=-555.6u)
.model 1N748 D (Is=1.252f Rs=1.156 Ikf=0 N=1 Xti=3 Eg=1.11 Cjo=205p M=.6004 Vj=.75 Fc=.5 Isr=1.867n Nr=2 Bv=3.9 Ibv=17.244m Nbv=2.4016 Ibvl=8.619m Nbvl=13.283 TBv1=-384.62u)
.model 1N749 D (Is=880.5E-18 Rs=.25 Ikf=0 N=1 Xti=3 Eg=1.11 Cjo=190p M=.6124 Vj=.75 Fc=.5 Isr=1.743n Nr=2 Bv=4.3 Ibv=16.748m Nbv=1.7936 Ibvl=5.0382m Nbvl=12.554 TBv1=-232.56u)
.model 1N750 D(Is=.88f Rs=.25 Cjo=175p M=.55 nbv=1.7 bv=4.7 Vj=.75 Isr=1.86n Nr=2 Ibv=20.245m Ibvl=1.96m Nbvl=15 Tbv1=-21.3u Vpk=4.7 mfg=OnSemi type=Zener)
.model 1N751 D (Is=1.004f Rs=.5875 Ikf=0 N=1 Xti=3 Eg=1.11 Cjo=160p M=.5484 Vj=.75 Fc=.5 Isr=1.8n Nr=2 Bv=5.1 Ibv=27.721m Nbv=1.1779 Ibvl=1.1646m Nbvl=21.894 TBv1=176.47u)
.model 1N752 D (Is=1.154f Rs=.9471 Ikf=0 N=1 Xti=3 Eg=1.11 Cjo=150p M=.5788 Vj=.75 Fc=.5 Isr=1.625n Nr=2 Bv=5.6 Ibv=62.583m Nbv=.62382 Ibvl=631.96u Nbvl=50 TBv1=267.86u)
.model 1N753 D (Is=1.536f Rs=1.687 Ikf=0 N=1 Xti=3 Eg=1.11 Cjo=130p M=.5259 Vj=.75 Fc=.5 Isr=1.719n Nr=2 Bv=6.2 Ibv=1.9685 Nbv=.28384 Ibvl=7.0094e-7 Nbvl=.29418 TBv1=443.55u)
.model 1N754 D (Is=1.616f Rs=1.818 Ikf=0 N=1 Xti=3 Eg=1.11 Cjo=120p M=.5117 Vj=.75 Fc=.5 Isr=1.698n Nr=2 Bv=6.8 Ibv=2.8814 Nbv=.28248 Ibvl=1.9426e-6 Nbvl=.27168 TBv1=485.29u)
.model 1N755 D (Is=2.077f Rs=2.467 Ikf=0 N=1 Xti=3 Eg=1.11 Cjo=104p M=.5061 Vj=.75 Fc=.5 Isr=1.645n Nr=2 Bv=7.5 Ibv=2.5701 Nbv=.39227 Ibvl=4.0222e-5 Nbvl=.25042 TBv1=533.33u)
.model 1N756 D (Is=2.453f Rs=2.9 Ikf=0 N=1 Xti=3 Eg=1.11 Cjo=90p M=.448 Vj=.75 Fc=.5 Isr=1.803n Nr=2 Bv=8.2 Ibv=1.5593 Nbv=.51406 Ibvl=8.3521e-5 Nbvl=.1313 TBv1=585.366u)
.model 1N757 D (Is=2.453f Rs=2.9 Ikf=0 N=1 Xti=3 Eg=1.11 Cjo=78p M=.4399 Vj=.75 Fc=.5 Isr=1.762n Nr=2 Bv=9.1 Ibv=.48516 Nbv=.7022 Ibvl=1m Nbvl=.13785 TBv1=604.396u)
.model 1N758 D (Is=1.953f Rs=2.305 Ikf=0 N=1 Xti=3 Eg=1.11 Cjo=68p M=.3856 Vj=.75 Fc=.5 Isr=1.939n Nr=2 Bv=10 Ibv=.16597 Nbv=.84122 Ibvl=1.003m Nbvl=.20892 TBv1=650u)
.model 1N759 D (Is=1.773f Rs=2.06 Ikf=0 N=1 Xti=3 Eg=1.11 Cjo=102p M=.4868 Vj=.75 Fc=.5 Isr=1.393n Nr=2 Bv=12 Ibv=79.489m Nbv=1.1528 Ibvl=142.9n Nbvl=.95108 TBv1=700u)
.model 1N914 D(Is=2.52n Rs=.568 N=1.752 Cjo=4p M=.4 tt=20n Iave=200m Vpk=75 mfg=OnSemi type=silicon)
.model 1N914/27C D (IS=1.6436E-15 RS=1.581604 N=1.057899 TT=1.36E-7 CJO=3.0177E-12 VJ=0.4 M=0.2147523 EG=1.11 XTI=3 KF=0 AF=1 FC=0.764906 BV=94 IBV=5E-6)
.model 1N914/27C/RAD D (IS=1.5331E-13 RS=1.38794 N=1.274012 TT=1.16E-7 CJO=3.01491E-12 VJ=0.4 M=0.2145244 EG=1.11 XTI=3 KF=0 AF=1 FC=0.85 BV=91 IBV=1E-5)
.model 1N914/125C D (IS=2.25833E-15 RS=1.799439 N=1.067043 TT=1.46E-7 CJO=3.0177E-12 VJ=0.4 M=0.2147523 EG=1.11 XTI=4.799594 KF=0 AF=1 FC=0.764906 BV=94 IBV=5E-6)
.model 1N914/-55C D (IS=2.32292E-15 RS=1.525844 N=1.071906 TT=1.26E-7 CJO=3.0177E-12 VJ=0.4 M=0.2147523 EG=1.11 XTI=6.260188 KF=0 AF=1 FC=0.764906 BV=94 IBV=5E-6)
.model 1N914a D (Is=100f N=1 Rs=16 Ikf=0 Xti=3 Eg=1.11 Cjo=2p M=.3333 Vj=.75 Fc=.5 Isr=100p Nr=2 Bv=100 Ibv=100f TT=12n)
.model 1N914B D (Is=0.1p Rs=2 CJO=2p TT=12n Bv=100 Ibv=0.1p)
.model 1N916 D (Is=168.1E-21 N=1 Rs=.1 Ikf=0 Xti=3 Eg=1.11 Cjo=2p M=.3333 Vj=.75 Fc=.5 Isr=757.7n Nr=2.091 Bv=100 Ibv=100u TT=25.95n)
.model 1N916A D (Is=0.1p Rs=4 CJO=1p TT=12n Bv=100 Ibv=0.1p)
.model 1N916B D (Is=0.1p Rs=4 CJO=1p TT=12n Bv=100 Ibv=0.1p)
.model 1N957A D (Is=1.616f Rs=1.82 Ikf=0 N=1 Xti=3 Eg=1.11 Cjo=120p M=.5117 Vj=.75 Fc=.5 Isr=1.698n Nr=2 Bv=6.8 Ibv=1.8441 Nbv=.28243 Ibvl=6.2172E-15 Nbvl=.50147 TBv1=485.294u)
.model 1N958A D (Is=2.077f Rs=2.467 Ikf=0 N=1 Xti=3 Eg=1.11 Cjo=104p M=.5061 Vj=.75 Fc=.5 Isr=1.645n Nr=2 Bv=7.5 Ibv=.90645 Nbv=.39227 Ibvl=.5849n Nbvl=1.5122 TBv1=533.33u)
.model 1N959A D (Is=2.491f Rs=2.938 Ikf=0 N=1 Xti=3 Eg=1.11 Cjo=90p M=.448 Vj=.75 Fc=.5 Isr=1.803n Nr=2 Bv=8.2 Ibv=.41558 Nbv=.51229 Ibvl=.65179n Nbvl=1.1568 TBv1=585.37u)
.model 1N960A D (Is=2.168f Rs=2.578 Ikf=0 N=1 Xti=3 Eg=1.11 Cjo=78p M=.4399 Vj=.75 Fc=.5 Isr=1.762n Nr=2 Bv=9.1 Ibv=97.714m Nbv=.71712 Ibvl=.58975n Nbvl=.98128 TBv1=604.4u)
.model 1N961A D (Is=1.953f Rs=2.305 Ikf=0 N=1 Xti=3 Eg=1.11 Cjo=68p M=.3856 Vj=.75 Fc=.5 Isr=1.939n Nr=2 Bv=10 Ibv=46.912m Nbv=.84122 Ibvl=626.74p Nbvl=.78605 TBv1=650u)
.model 1N962A D (Is=1.609f Rs=1.813 Ikf=0 N=1 Xti=3 Eg=1.11 Cjo=115p M=.4751 Vj=.75 Fc=.5 Isr=1.493n Nr=2 Bv=11 Ibv=24.084m Nbv=1.1052 Ibvl=149.27n Nbvl=.22862 TBv1=672.73u)
.model 1N963A D (Is=1.773f Rs=2.061 Ikf=0 N=1 Xti=3 Eg=1.11 Cjo=102p M=.4868 Vj=.75 Fc=.5 Isr=1.393n Nr=2 Bv=12 Ibv=21.7m Nbv=1.1527 Ibvl=29.343n Nbvl=.245 TBv1=700u)
.model 1N963B D (IS=7.435500E-15 N=2.73385 RS=2.075249E-1 CJO=60.00E-12 M=.50673 VJ=.75 ISR=1.3560E-6 NR=2.966 BV=11.8971 IBV=2.135532E-4 TT=590.0000E-9)
.model 1N964A D (Is=2.253f Rs=2.678 Ikf=0 N=1 Xti=3 Eg=1.11 Cjo=90p M=.4558 Vj=.75 Fc=.5 Isr=1.461n Nr=2 Bv=13 Ibv=21.761m Nbv=1.1851 Ibvl=468.81n Nbvl=.65126 TBv1=846.15u)
.model 1N965A D (Is=3.142f Rs=3.536 Ikf=0 N=1 Xti=3 Eg=1.11 Cjo=80.5p M=.4186 Vj=.75 Fc=.5 Isr=1.527n Nr=2 Bv=15 Ibv=24.573m Nbv=1.0932 Ibvl=7.1249u Nbvl=.65646 TBv1=833.33u)
.model 1N966A D (Is=5.461f Rs=4.975 Ikf=0 N=1 Xti=3 Eg=1.11 Cjo=69p M=.4472 Vj=.75 Fc=.5 Isr=1.371n Nr=2 Bv=16 Ibv=32.07m Nbv=1.0589 Ibvl=44.191u Nbvl=.86786 TBv1=875u)
.model 1N967A D (Is=7.021f Rs=5.619 Ikf=0 N=1 Xti=3 Eg=1.11 Cjo=60p M=.4093 Vj=.75 Fc=.5 Isr=1.461n Nr=2 Bv=18 Ibv=23.333m Nbv=1.2074 Ibvl=215.7u Nbvl=.71348 TBv1=888.9u)
.model 1N968A D (Is=10.18f Rs=6.578 Ikf=0 N=1 Xti=3 Eg=1.11 Cjo=59p M=.4063 Vj=.75 Fc=.5 Isr=1.415n Nr=2 Bv=20 Ibv=21.603m Nbv=1.2514 Ibvl=218.21u Nbvl=1.2514 TBv1=850u)
.model 1N969A D (Is=17.49f Rs=7.976 Ikf=0 N=1 Xti=3 Eg=1.11 Cjo=50p M=.4141 Vj=.75 Fc=.5 Isr=1.33n Nr=2 Bv=22 Ibv=20.578m Nbv=1.315 Ibvl=207.85u Nbvl=1.315 TBv1=840.91u)
.model 1N970A D (Is=25.64f Rs=8.973 Ikf=0 N=1 Xti=3 Eg=1.11 Cjo=44p M=.3798 Vj=.75 Fc=.5 Isr=1.438n Nr=2 Bv=24 Ibv=19.386m Nbv=1.3784 Ibvl=162.43u Nbvl=8.7919 TBv1=895.83u)
.model 1N971A D (Is=81.47f Rs=11.96 Ikf=0 N=1 Xti=3 Eg=1.11 Cjo=42p M=.3983 Vj=.75 Fc=.5 Isr=1.294n Nr=2 Bv=27 Ibv=87.12m Nbv=.51025 Ibvl=9.0498m Nbvl=2.0249 TBv1=888.89u)
.model 1N1190 D (Is=1.331u N=2.108 Rs=1.029m Ikf=11.73 Xti=3 Eg=1.11 Cjo=1p M=.5 Vj=.7 Fc=.5 Isr=40.74u Nr=2 Bv=400 Ibv=100u TT=5n)
.model 1N3063 D (Is=2.989n N=1.704 Rs=3.886 Ikf=26.84 Xti=3 Eg=1.11 Cjo=2p M=.3333 Vj=.75 Fc=.5 Isr=100p Nr=2 Bv=75 Ibv=5u TT=5.771n)
.model 1N3064 D (Is=168.1E-21 N=1 Rs=.1 Ikf=0 Xti=3 Eg=1.11 Cjo=2p M=.3333 Vj=.75 Fc=.5 Isr=24.54n Nr=2 Bv=100 Ibv=100u TT=5.771n)
.model 1N3491 D (Is=68.65f Rs=3.786m Ikf=1.774 N=1 Xti=2 Eg=1.11 Cjo=1.457n M=.9735 Vj=.75 Fc=.5 Isr=11.02u Nr=2 TT=6.059u)
.model 1N3492 D (Is=68.65f Rs=3.786m Ikf=1.774 N=1 Xti=2 Eg=1.11 Cjo=1.457n M=.9735 Vj=.75 Fc=.5 Isr=5.651u Nr=2 TT=6.059u)
.model 1N3493 D (Is=68.65f Rs=3.786m Ikf=1.774 N=1 Xti=2 Eg=1.11 Cjo=1.457n M=.9735 Vj=.75 Fc=.5 Isr=2.888u Nr=2 TT=6.059u)
.model 1N3494 D (Is=68.65f Rs=3.786m Ikf=1.774 N=1 Xti=2 Eg=1.11 Cjo=1.457n M=.9735 Vj=.75 Fc=.5 Isr=1.949u Nr=2 TT=6.059u)
.model 1N3495 D (Is=68.65f Rs=3.786m Ikf=1.774 N=1 Xti=2 Eg=1.11 Cjo=1.457n M=.9735 Vj=.75 Fc=.5 Isr=1.474u Nr=2 TT=6.059u)
.model 1N3501 D (Is=10f N=1 Rs=.1 Ikf=0 Xti=3 Eg=1.11 Cjo=168.9p M=.1794 Vj=.3905 Fc=.5 Isr=678.5n Nr=2 Bv=6.444 Ibv=.2898 TT=7.213u)
.model 1N3600 D (Is=8.845E-18 N=.7522 Rs=1.22 Ikf=21.53 Xti=3 Eg=1.11 Cjo=2.5p M=.3333 Vj=.75 Fc=.5 Isr=2.668u Nr=2 Bv=75 Ibv=100u TT=8.656n)
.model 1N3604 D (Is=980.8E-21 N=1 Rs=.1 Ikf=0 Xti=3 Eg=1.11 Cjo=2p M=.3333 Vj=.75 Fc=.5 Isr=12.27n Nr=2 Bv=75 Ibv=5u TT=5.771n)
.model 1N3605 D (Is=1.098n N=1.659 Rs=1.156 Ikf=8.872 Xti=3 Eg=1.11 Cjo=2p M=.3333 Vj=.75 Fc=.5 Isr=14.18n Nr=2 Bv=40 Ibv=5u TT=5.771n)
.model 1N3606 D (Is=1.098n N=1.659 Rs=1.156 Ikf=8.872 Xti=3 Eg=1.11 Cjo=2p M=.3333 Vj=.75 Fc=.5 Isr=12n Nr=2 Bv=75 Ibv=5u TT=5.771n)
.model 1N3879 D (Is=1.058E-18 Rs=11.56m Ikf=2.349 N=1 Xti=14 Eg=1.11 Cjo=113.2p M=.2834 Vj=.75 Fc=.5 Isr=908.6n Nr=2 TT=369.9n)
.model 1N3880 D (Is=1.058E-18 Rs=11.56m Ikf=2.349 N=1 Xti=14 Eg=1.11 Cjo=113.2p M=.2834 Vj=.75 Fc=.5 Isr=798n Nr=2 TT=369.9n)
.model 1N3881 D (Is=1.058E-18 Rs=11.56m Ikf=2.349 N=1 Xti=14 Eg=1.11 Cjo=113.2p M=.2834 Vj=.75 Fc=.5 Isr=820.5n Nr=2 TT=369.9n)
.model 1N3882 D (Is=1.058E-18 Rs=11.56m Ikf=2.349 N=1 Xti=14 Eg=1.11 Cjo=113.2p M=.2834 Vj=.75 Fc=.5 Isr=887.2n Nr=2 TT=369.9n)
.model 1N3883 D (Is=1.058E-18 Rs=11.56m Ikf=2.349 N=1 Xti=14 Eg=1.11 Cjo=113.2p M=.2834 Vj=.75 Fc=.5 Isr=994.9n Nr=2 TT=369.9n)
.model 1N3889 D (Is=15.03f Rs=9.606m Ikf=.2003 N=1 Xti=3 Eg=1.11 Cjo=117.8p M=.2976 Vj=.75 Fc=.5 Isr=770.3n Nr=2 TT=369.9n)
.model 1N3890 D (Is=15.03f Rs=9.606m Ikf=.2003 N=1 Xti=3 Eg=1.11 Cjo=117.8p M=.2976 Vj=.75 Fc=.5 Isr=684.1n Nr=2 TT=369.9n)
.model 1N3891 D (Is=15.03f Rs=9.606m Ikf=.2003 N=1 Xti=3 Eg=1.11 Cjo=117.8p M=.2976 Vj=.75 Fc=.5 Isr=672.7n Nr=2 TT=369.9n)
.model 1N3892 D (Is=15.03f Rs=9.606m Ikf=.2003 N=1 Xti=3 Eg=1.11 Cjo=117.8p M=.2976 Vj=.75 Fc=.5 Isr=705.6n Nr=2 TT=369.9n)
.model 1N3893 D (Is=15.03f Rs=9.606m Ikf=.2003 N=1 Xti=3 Eg=1.11 Cjo=117.8p M=.2976 Vj=.75 Fc=.5 Isr=809.8n Nr=2 TT=369.9n)
.model 1N3899 D (Is=5.62f Rs=6.414m Ikf=9.692 N=1 Xti=2 Eg=1.11 Cjo=144.1p M=.2272 Vj=.75 Fc=.5 Isr=1.036u Nr=2 TT=521.4n)
.model 1N3900 D (Is=5.62f Rs=6.414m Ikf=9.692 N=1 Xti=2 Eg=1.11 Cjo=144.1p M=.2272 Vj=.75 Fc=.5 Isr=985.4n Nr=2 TT=521.4n)
.model 1N3901 D (Is=5.62f Rs=6.414m Ikf=9.692 N=1 Xti=2 Eg=1.11 Cjo=144.1p M=.2272 Vj=.75 Fc=.5 Isr=997n Nr=2 TT=521.4n)
.model 1N3902 D (Is=5.62f Rs=6.414m Ikf=9.692 N=1 Xti=2 Eg=1.11 Cjo=144.1p M=.2272 Vj=.75 Fc=.5 Isr=1.076u Nr=2 TT=521.4n)
.model 1N3903 D (Is=5.62f Rs=6.414m Ikf=9.692 N=1 Xti=2 Eg=1.11 Cjo=144.1p M=.2272 Vj=.75 Fc=.5 Isr=1.248u Nr=2 TT=521.4n)
.model 1N3909 D (Is=20.07f Rs=3.842m Ikf=2.963 N=1 Xti=3 Eg=1.11 Cjo=111.7p M=.2683 Vj=.75 Fc=.5 Isr=887.6n Nr=2 TT=369.9n)
.model 1N3910 D (Is=20.07f Rs=3.842m Ikf=2.963 N=1 Xti=3 Eg=1.11 Cjo=111.7p M=.2683 Vj=.75 Fc=.5 Isr=805.6n Nr=2 TT=369.9n)
.model 1N3911 D (Is=20.07f Rs=3.842m Ikf=2.963 N=1 Xti=3 Eg=1.11 Cjo=111.7p M=.2683 Vj=.75 Fc=.5 Isr=825.8n Nr=2 TT=369.9n)
.model 1N3912 D (Is=20.07f Rs=3.842m Ikf=2.963 N=1 Xti=3 Eg=1.11 Cjo=111.7p M=.2683 Vj=.75 Fc=.5 Isr=851.1n Nr=2 TT=369.9n)
.model 1N3913 D (Is=20.07f Rs=3.842m Ikf=2.963 N=1 Xti=3 Eg=1.11 Cjo=111.7p M=.2683 Vj=.75 Fc=.5 Isr=973.4n Nr=2 TT=369.9n)
.model 1N3940 D (IS=4E-10 RS=.105 N=1.48 TT=8E-7 CJO=1.95E-11 VJ=.4 M=.38 EG=1.36 XTI=-8 KF=0 AF=1 FC=.9 BV=600 IBV=1E-4)
.model 1N4001 D (Is=14.11n N=1.984 Rs=33.89m Ikf=94.81 Xti=3 Eg=1.11 Cjo=25.89p M=.44 Vj=.3245 Fc=.5 Bv=75 Ibv=10u TT=5.7u)
.model 1N4002 D (IS=14.11E-9 N=1.984 RS=33.89E-3 IKF=94.81 XTI=3 EG=1.110 CJO=51.17E-12 M=.2762 VJ=.3905 FC=.5 ISR=100.0E-12 NR=2 BV=100.1 IBV=10 TT=4.761E-6)
.model 1N4003/27C/RAD1 D (IS=1.34779E-7 RS=0.1 N=2.067915 TT=1.48E-7 CJO=2.17106E-11 VJ=0.4 M=0.390894 EG=1.11 XTI=3 KF=0 AF=1 FC=0.809613 BV=345 IBV=1E-6)
.model 1N4003/27C/RAD2 D (IS=4.30065E-7 RS=0.243508 N=2.603175 TT=1.69E-8 CJO=8.55433E-12 VJ=0.7143081 M=0.2393511 EG=1.11 XTI=3 KF=0 AF=1 FC=0.5 BV=1E5 IBV=1E-3)
.model 1N4009 D (Is=544.7E-21 N=1 Rs=.1 Ikf=0 Xti=3 Eg=1.11 Cjo=4p M=.3333 Vj=.75 Fc=.5 Isr=30.77n Nr=2 Bv=25 Ibv=100u TT=2.885n)
.model 1N4099 D (IS=3.3179E-6 N=3.5120 RS=1.0000E-3 CJO=80.00E-12 M=.31349 VJ=.3905 ISR=2.9061E-6 BV=6.9975 IBV=.51729 TT=312.00E-9)
.model 1N4148 D(Is=2.52n Rs=.568 N=1.752 Cjo=4p M=.4 tt=20n Iave=200m Vpk=75 mfg=OnSemi type=silicon)
.model 1N4148/27C D (IS=1.27106E-8 RS=0.7546332 N=1.9215823 TT=3.679E-9 CJO=1.72434E-12 VJ=0.3026211 M=0.2 EG=1.11 XTI=3 KF=0 AF=1 FC=0.998001 BV=1E5 IBV=1.0E-10)
.model 1N4148/125C D (IS=6.42601E-9 RS=0.7520202 N=1.8485649 TT=6.303E-9 CJO=1.75198E-12 VJ=0.4 M=0.2289422 EG=1.11 XTI=3 KF=0 AF=1 FC=0.8991 BV=1E5 IBV=1.0E-10)
.model 1N4148/-55C D (IS=1.26351E-8 RS=0.7600063 N=1.953465 TT=2.424E-9 CJO=1.72434E-12 VJ=0.3026211 M=0.2 EG=1.11 XTI=3 KF=0 AF=1 FC=0.998001 BV=1E5 IBV=1.0E-10)
.model 1N4148/TEMP D (IS=1.27106E-8 RS=0.7546332 N=1.9215823 TT=3.679E-9 CJO=1.72434E-12 VJ=0.3026211 M=0.2 EG=1.11 XTI=3 KF=0 AF=1 FC=0.998001 BV=1E5 IBV=1.0E-10)
.model 1N4149 D (Is=2.682n N=1.836 Rs=.5664 Ikf=44.17m Xti=3 Eg=1.11 Cjo=2p M=.3333 Vj=.5 Fc=.5 Isr=1.565n Nr=2 Bv=100 Ibv=100u TT=11.54n)
.model 1N4150 D (Is=740.5p N=1.65 Rs=.5949 Ikf=8.039 Xti=3 Eg=1.11 Cjo=2.5p M=.3333 Vj=.75 Fc=.5 Isr=24.36n Nr=2 Bv=75.37 Ibv=100u TT=5.771n)
.model 1N4151 D (Is=2.2n N=1.768 Rs=.5927 Ikf=8.512m Xti=3 Eg=1.11 Cjo=1.725p M=88.82m Vj=.5 Fc=.5 Isr=7.832n Nr=2 Bv=75 Ibv=5u TT=5.771n)
.model 1N4152 D (IS=1.2554E-9 N=1.7783 RS=1.2124 IKF=19.158E-3 CJO=2.0000E-12 M=.3333 VJ=.75 ISR=14.138E-9 BV=40.375 IBV=10 TT=7.0382E-9)
.model 1N4153 D (Is=36.16E-18 N=1 Rs=.1 Ikf=0 Xti=3 Eg=1.11 Cjo=2p M=.3333 Vj=.75 Fc=.5 Isr=12.27n Nr=2 Bv=100 Ibv=100u TT=5.771n)
.model 1N4154 D (Is=153.4p N=1.487 Rs=.6329 Ikf=3.53m Xti=3 Eg=1.11 Cjo=2.251p M=.1575 Vj=.5 Fc=.5 Isr=4.763n Nr=2 Bv=35 Ibv=5u TT=5.771n)
.model 1N4305 D (Is=55.48E-18 N=1 Rs=.1 Ikf=0 Xti=3 Eg=1.11 Cjo=2p M=.3333 Vj=.75 Fc=.5 Isr=24.54n Nr=2 Bv=75 Ibv=100u TT=5.771n)
.model 1N4376 D (IS=857.8900E-12 N=1.88811 RS=2.53577 CJO=1.0000E-12 M=.3333 VJ=.75 ISR=40.817E-9 NR=6.32069 BV=20.375 IBV=10 TT=662.00E-12)
.model 1N4444 D (Is=26.66n N=2.062 Rs=.4266 Ikf=22.1 Xti=3 Eg=1.11 Cjo=2p M=.3333 Vj=.75 Fc=.5 Isr=5.729n Nr=2 Bv=70 Ibv=100u TT=10.1n)
.model 1N4446 D (Is=1.071n N=1.698 Rs=.8383 Ikf=0 Xti=3 Eg=1.11 Cjo=4p M=.3333 Vj=.75 Fc=.5 Isr=2.441n Nr=2 Bv=100 Ibv=100u TT=11.54n)
.model 1N4447 D (Is=1.071n N=1.698 Rs=.8383 Ikf=0 Xti=3 Eg=1.11 Cjo=2p M=.3333 Vj=.5 Fc=.5 Isr=2.149n Nr=2 Bv=100 Ibv=100u TT=11.54n)
.model 1N4448 D (Is=2.681n N=1.835 Rs=.5142 Ikf=34.82m Xti=3 Eg=1.11 Cjo=4p M=.3333 Vj=.5 Fc=.5 Isr=1.566n Nr=2 Bv=100 Ibv=100u TT=11.54n)
.model 1N4449 D (Is=2.018n N=1.791 Rs=.6887 Ikf=0 Xti=3 Eg=1.11 Cjo=2p M=.3333 Vj=.5 Fc=.5 Isr=1.806n Nr=2 Bv=100 Ibv=100u TT=11.54n)
.model 1N4454 D (Is=168.1E-21 N=1 Rs=.1 Ikf=0 Xti=3 Eg=1.11 Cjo=2p M=.3333 Vj=.75 Fc=.5 Isr=24.54n Nr=2 Bv=75 Ibv=100u TT=5.771n)
.model 1N4460 D (Is=84.5f N=1 Rs=.1 Ikf=0 Xti=3 Eg=1.11 Cjo=1n M=.3333 Vj=.75 Fc=.5 Isr=5.516u Nr=2 Bv=6.233 Ibv=.1658 TT=144.3n)
.model 1N4461 D (Is=84.5f N=1 Rs=.1 Ikf=0 Xti=3 Eg=1.11 Cjo=1n M=.3333 Vj=.75 Fc=.5 Isr=2.688u Nr=2 Bv=6.85 Ibv=.2913 TT=144.3n)
.model 1N4462 D (Is=84.5f N=1 Rs=.1 Ikf=0 Xti=3 Eg=1.11 Cjo=1n M=.3333 Vj=.75 Fc=.5 Isr=522.8n Nr=2 Bv=7.554 Ibv=.317 TT=144.3n)
.model 1N4463 D (Is=84.5f N=1 Rs=.1 Ikf=0 Xti=3 Eg=1.11 Cjo=1n M=.3333 Vj=.75 Fc=.5 Isr=254.8n Nr=2 Bv=8.255 Ibv=.2877 TT=144.3n)
.model 1N4464 D (Is=84.5f N=1 Rs=.1 Ikf=0 Xti=3 Eg=1.11 Cjo=1n M=.3333 Vj=.75 Fc=.5 Isr=148.3n Nr=2 Bv=9.152 Ibv=.2369 TT=144.3n)
.model 1N4465 D (Is=84.5f N=1 Rs=.1 Ikf=0 Xti=3 Eg=1.11 Cjo=950p M=.3333 Vj=.75 Fc=.5 Isr=132.3n Nr=2 Bv=10.05 Ibv=.2111 TT=144.3n)
.model 1N4466 D (Is=84.5f N=1 Rs=.1 Ikf=0 Xti=3 Eg=1.11 Cjo=950p M=.3333 Vj=.75 Fc=.5 Isr=128.5n Nr=2 Bv=11.05 Ibv=.1906 TT=144.3n)
.model 1N4467 D (Is=84.5f N=1 Rs=.1 Ikf=0 Xti=3 Eg=1.11 Cjo=930p M=.3333 Vj=.75 Fc=.5 Isr=83.39n Nr=2 Bv=12.05 Ibv=.1785 TT=144.3n)
.model 1N4468 D (Is=84.5f N=1 Rs=.1 Ikf=0 Xti=3 Eg=1.11 Cjo=920p M=.3333 Vj=.75 Fc=.5 Isr=20.34n Nr=2 Bv=13.06 Ibv=.1723 TT=144.3n)
.model 1N4469 D (Is=84.5f N=1 Rs=.1 Ikf=0 Xti=3 Eg=1.11 Cjo=920p M=.3333 Vj=.75 Fc=.5 Isr=19.45n Nr=2 Bv=15.06 Ibv=.1709 TT=144.3n)
.model 1N4470 D (Is=84.5f N=1 Rs=.1 Ikf=0 Xti=3 Eg=1.11 Cjo=920p M=.3333 Vj=.75 Fc=.5 Isr=19.06n Nr=2 Bv=16.06 Ibv=.1686 TT=144.3n)
.model 1N4471 D (Is=84.5f N=1 Rs=.1 Ikf=0 Xti=3 Eg=1.11 Cjo=910p M=.3333 Vj=.75 Fc=.5 Isr=18.36n Nr=2 Bv=18.06 Ibv=.1695 TT=144.3n)
.model 1N4472 D (Is=84.5f N=1 Rs=.1 Ikf=0 Xti=3 Eg=1.11 Cjo=900p M=.3333 Vj=.75 Fc=.5 Isr=17.76n Nr=2 Bv=20.07 Ibv=.1739 TT=144.3n)
.model 1N4473 D (Is=84.5f N=1 Rs=.1 Ikf=0 Xti=3 Eg=1.11 Cjo=880p M=.3333 Vj=.75 Fc=.5 Isr=17.22n Nr=2 Bv=22.07 Ibv=.1618 TT=144.3n)
.model 1N4474 D (Is=84.5f N=1 Rs=.1 Ikf=0 Xti=3 Eg=1.11 Cjo=880p M=.3333 Vj=.75 Fc=.5 Isr=16.75n Nr=2 Bv=24.07 Ibv=.1549 TT=144.3n)
.model 1N4475 D (Is=84.5f N=1 Rs=.1 Ikf=0 Xti=3 Eg=1.11 Cjo=880p M=.3333 Vj=.75 Fc=.5 Isr=16.13n Nr=2 Bv=27.07 Ibv=.1521 TT=144.3n)
.model 1N4476 D (Is=84.5f N=1 Rs=.1 Ikf=0 Xti=3 Eg=1.11 Cjo=850p M=.3333 Vj=.75 Fc=.5 Isr=15.59n Nr=2 Bv=30.07 Ibv=.1529 TT=144.3n)
.model 1N4477 D (Is=84.5f N=1 Rs=.1 Ikf=0 Xti=3 Eg=1.11 Cjo=840p M=.3333 Vj=.75 Fc=.5 Isr=15.12n Nr=2 Bv=33.07 Ibv=.1385 TT=144.3n)
.model 1N4478 D (Is=84.5f N=1 Rs=.1 Ikf=0 Xti=3 Eg=1.11 Cjo=820p M=.3333 Vj=.75 Fc=.5 Isr=14.7n Nr=2 Bv=36.08 Ibv=.1374 TT=144.3n)
.model 1N4479 D (Is=84.5f N=1 Rs=.1 Ikf=0 Xti=3 Eg=1.11 Cjo=810p M=.3333 Vj=.75 Fc=.5 Isr=14.32n Nr=2 Bv=39.08 Ibv=.1331 TT=144.3n)
.model 1N4480 D (Is=84.5f N=1 Rs=.1 Ikf=0 Xti=3 Eg=1.11 Cjo=790p M=.3333 Vj=.75 Fc=.5 Isr=13.87n Nr=2 Bv=43.07 Ibv=.108 TT=144.3n)
.model 1N4481 D (Is=84.5f N=1 Rs=.1 Ikf=0 Xti=3 Eg=1.11 Cjo=770p M=.3333 Vj=.75 Fc=.5 Isr=13.48n Nr=2 Bv=47.07 Ibv=94.24m TT=144.3n)
.model 1N4482 D (Is=84.5f N=1 Rs=.1 Ikf=0 Xti=3 Eg=1.11 Cjo=750p M=.3333 Vj=.75 Fc=.5 Isr=13.12n Nr=2 Bv=51.07 Ibv=86.36m TT=144.3n)
.model 1N4483 D (Is=84.5f N=1 Rs=.1 Ikf=0 Xti=3 Eg=1.11 Cjo=720p M=.3333 Vj=.75 Fc=.5 Isr=63.61n Nr=2 Bv=56.07 Ibv=82.23m TT=144.3n)
.model 1N4484 D (Is=84.5f N=1 Rs=.1 Ikf=0 Xti=3 Eg=1.11 Cjo=690p M=.3333 Vj=.75 Fc=.5 Isr=61.52n Nr=2 Bv=62.08 Ibv=80.93m TT=144.3n)
.model 1N4485 D (Is=84.5f N=1 Rs=.1 Ikf=0 Xti=3 Eg=1.11 Cjo=660p M=.3333 Vj=.75 Fc=.5 Isr=59.68n Nr=2 Bv=68.08 Ibv=69.97m TT=144.3n)
.model 1N4486 D (Is=84.5f N=1 Rs=.1 Ikf=0 Xti=3 Eg=1.11 Cjo=630p M=.3333 Vj=.75 Fc=.5 Isr=57.66n Nr=2 Bv=75.07 Ibv=60.34m TT=144.3n)
.model 1N4487 D (Is=84.5f N=1 Rs=.1 Ikf=0 Xti=3 Eg=1.11 Cjo=600p M=.3333 Vj=.75 Fc=.5 Isr=56.11n Nr=2 Bv=82.07 Ibv=53.92m TT=144.3n)
.model 1N4488 D (Is=84.5f N=1 Rs=.1 Ikf=0 Xti=3 Eg=1.11 Cjo=600p M=.3333 Vj=.75 Fc=.5 Isr=54.22n Nr=2 Bv=91.07 Ibv=46.21m TT=144.3n)
.model 1N4489 D (Is=84.5f N=1 Rs=.1 Ikf=0 Xti=3 Eg=1.11 Cjo=560p M=.3333 Vj=.75 Fc=.5 Isr=52.56n Nr=2 Bv=100.1 Ibv=41.4m TT=144.3n)
.model 1N4490 D (Is=84.5f N=1 Rs=.1 Ikf=0 Xti=3 Eg=1.11 Cjo=500p M=.3333 Vj=.75 Fc=.5 Isr=50.93n Nr=2 Bv=110.1 Ibv=43.12m TT=144.3n)
.model 1N4491 D (Is=84.5f N=1 Rs=.1 Ikf=0 Xti=3 Eg=1.11 Cjo=440p M=.3333 Vj=.75 Fc=.5 Isr=49.49n Nr=2 Bv=120.1 Ibv=32.34m TT=144.3n)
.model 1N4492 D (Is=84.5f N=1 Rs=.1 Ikf=0 Xti=3 Eg=1.11 Cjo=380p M=.3333 Vj=.75 Fc=.5 Isr=48.19n Nr=2 Bv=130.1 Ibv=27.23m TT=144.3n)
.model 1N4493 D (Is=84.5f N=1 Rs=.1 Ikf=0 Xti=3 Eg=1.11 Cjo=300p M=.3333 Vj=.75 Fc=.5 Isr=45.96n Nr=2 Bv=150.1 Ibv=21.74m TT=144.3n)
.model 1N4494 D (Is=84.5f N=1 Rs=.1 Ikf=0 Xti=3 Eg=1.11 Cjo=240p M=.3333 Vj=.75 Fc=.5 Isr=44.99n Nr=2 Bv=160.1 Ibv=16.17m TT=144.3n)
.model 1N4495 D (Is=84.5f N=1 Rs=.1 Ikf=0 Xti=3 Eg=1.11 Cjo=200p M=.3333 Vj=.75 Fc=.5 Isr=43.27n Nr=2 Bv=180.1 Ibv=14.21m TT=144.3n)
.model 1N4496 D (Is=84.5f N=1 Rs=.1 Ikf=0 Xti=3 Eg=1.11 Cjo=125p M=.3333 Vj=.75 Fc=.5 Isr=41.78n Nr=2 Bv=200.1 Ibv=14.37m TT=144.3n)
.model 1N4531 D (Is=168.1E-21 N=1 Rs=.1 Ikf=0 Xti=3 Eg=1.11 Cjo=4p M=.3333 Vj=.75 Fc=.5 Isr=8.267n Nr=2 Bv=75 Ibv=5u TT=25.95n)
.model 1N4532 D (Is=168.1E-21 N=1 Rs=.1 Ikf=0 Xti=3 Eg=1.11 Cjo=2p M=.3333 Vj=.75 Fc=.5 Isr=24.54n Nr=2 Bv=75 Ibv=5u TT=5.771n)
.model 1N4533 D (Is=0.1p Rs=6 CJO=1p TT=3n Bv=70 Ibv=0.1p)
.model 1N4534 D (Is=260.5E-18 N=1 Rs=.1 Ikf=0 Xti=3 Eg=1.11 Cjo=2p M=.3333 Vj=.75 Fc=.5 Isr=12.27n Nr=2 Bv=50 Ibv=100u TT=2.885n)
.model 1N4536 D (Is=544.7E-21 N=1 Rs=.1 Ikf=0 Xti=3 Eg=1.11 Cjo=4p M=.3333 Vj=.75 Fc=.5 Isr=33.07n Nr=2 Bv=35 Ibv=5u TT=2.885n)
.model 1N4617 D (IS=77.530E-18 N=1.196 RS=13.58044E-3 CJO=170E-12 M=.53348 VJ=.75 ISR=1.2724E-6 NR=2.1594 BV=2.5491 IBV=79.582E-3 TT=94.60E-9)
.model 1N4620 D (IS=9.639783e-017 N=0.904663 RS=1.013298e-006 CJO=170.00E-12 M=.4502 VJ=.75 ISR=4.5731E-6 NR=2.4484 BV=3.4454 IBV=68.971E-3 TT=100.00E-9)
.model 1N4678 D (IS=6.299653e-010 N=2.15352 RS=1.475356e-006 CJO=170.00E-12 M=.3333 VJ=.75 ISR=5.577980e-006 NR=4.00204 BV=1.9860 IBV=66.506E-3 TT=193.90E-9)
.model 1N4683 D (IS=76.58763E-9 N=2.74614 RS=2.226934e-002 CJO=140.00E-12 M=.47645 VJ=.75 ISR=472.14E-9 NR=3.76704 BV=3.1795 IBV=51.728E-3 TT=92.81E-9)
.model 1N4684 D (IS=80.21637E-9 N=2.80334 RS=3.412605e-002 CJO=135E-12 M=.5033 VJ=.75 ISR=4.2604E-6 NR=4.11012 BV=3.4781 IBV=49.004E-3 TT=150.49E-9)
.model 1N4702 D (IS=50.00001E-9 N=2.6594 RS=21.22699E-3 CJO=40.00E-12 M=.31207 VJ=.75 ISR=10.01000E-21 NR=2 BV=15.226 IBV=.31031 TT=600.62E-9)
.model 1N4728 D (Is=11.11f Rs=6.808 Ikf=0 N=1 Xti=3 Eg=1.11 Cjo=315p M=.4346 Vj=.75 Fc=.5 Isr=2.595n Nr=2 Bv=3.3 Ibv=5.8452 Nbv=3.6742 Ibvl=.27224 Nbvl=11.715 TBv1=-636.36u)
.model 1N4729 D (Is=2.306f Rs=2.741 Ikf=0 N=1 Xti=3 Eg=1.11 Cjo=300p M=.4641 Vj=.75 Fc=.5 Isr=2.405n Nr=2 Bv=3.6 Ibv=1.1936 Nbv=2.2747 Ibvl=19.94m Nbvl=12.64 TBv1=-555.56u)
.model 1N4730 D (Is=1.379f Rs=1.406 Ikf=0 N=1 Xti=3 Eg=1.11 Cjo=280p M=.4369 Vj=.75 Fc=.5 Isr=2.441n Nr=2 Bv=3.9 Ibv=.2473 Nbv=2.2758 Ibvl=13.346m Nbvl=13.271 TBv1=-384.62u)
.model 1N4731 D (Is=837.3E-18 Rs=.1211 Ikf=0 N=1 Xti=3 Eg=1.11 Cjo=220p M=.389 Vj=.75 Fc=.5 Isr=2.56n Nr=2 Bv=4.3 Ibv=60.167m Nbv=1.8815 Ibvl=6.0358m Nbvl=12.57 TBv1=-232.558u)
.model 1N4732 D (Is=1.064f Rs=.741 Ikf=0 N=1 Xti=3 Eg=1.11 Cjo=208p M=.4176 Vj=.75 Fc=.5 Isr=2.364n Nr=2 Bv=4.7 Ibv=.16902 Nbv=1.2344 Ibvl=4.0082m Nbvl=11.59 TBv1=-21.28u)
.model 1N4733 D (Is=1.214f Rs=1.078 Ikf=0 N=1 Xti=3 Eg=1.11 Cjo=185p M=.3509 Vj=.75 Fc=.5 Isr=2.601n Nr=2 Bv=5.1 Ibv=.70507 Nbv=.74348 Ibvl=4.8274m Nbvl=6.7393 TBv1=176.471u)
.model 1N4734 D (Is=1.085f Rs=.7945 Ikf=0 N=1 Xti=3 Eg=1.11 Cjo=157p M=.2966 Vj=.75 Fc=.5 Isr=2.811n Nr=2 Bv=5.6 Ibv=.37157 Nbv=.64726 Ibvl=1m Nbvl=6.5761 TBv1=267.86u)
.model 1N4735 D (Is=1.168f Rs=.9756 Ikf=0 N=1 Xti=3 Eg=1.11 Cjo=140p M=.3196 Vj=.75 Fc=.5 Isr=2.613n Nr=2 Bv=6.2 Ibv=4.9984 Nbv=.32088 Ibvl=184.78u Nbvl=.19558 TBv1=443.55u)
.model 1N4736 D (Is=1.327f Rs=1.306 Ikf=0 N=1 Xti=3 Eg=1.11 Cjo=125p M=.3144 Vj=.75 Fc=.5 Isr=2.575n Nr=2 Bv=6.8 Ibv=15 Nbv=.31009 Ibvl=149.2u Nbvl=.31028 TBv1=485.29u)
.model 1N4737 D (Is=1.699f Rs=1.955 Ikf=0 N=1 Xti=3 Eg=1.11 Cjo=106p M=.3176 Vj=.75 Fc=.5 Isr=2.488n Nr=2 Bv=7.5 Ibv=15 Nbv=.42018 Ibvl=1m Nbvl=.094527 TBv1=533.33u)
.model 1N4738 D (Is=2.102f Rs=2.5 Ikf=0 N=1 Xti=3 Eg=1.11 Cjo=100p M=.3503 Vj=.75 Fc=.5 Isr=2.252n Nr=2 Bv=8.2 Ibv=8 Nbv=.53621 Ibvl=213.52u Nbvl=.17879 TBv1=585.37u)
.model 1N4739 D (Is=2.11f Rs=2.512 Ikf=0 N=1 Xti=3 Eg=1.11 Cjo=89p M=.384 Vj=.75 Fc=.5 Isr=2.012n Nr=2 Bv=9.1 Ibv=1.2 Nbv=.72056 Ibvl=10m Nbvl=.21148 TBv1=604.396u)
.model 1N4740 D (Is=1.945f Rs=2.302 Ikf=0 N=1 Xti=3 Eg=1.11 Cjo=82p M=.3649 Vj=.75 Fc=.5 Isr=2.04n Nr=2 Bv=10 Ibv=.35034 Nbv=.84137 Ibvl=10m Nbvl=.17757 TBv1=650u)
.model 1N4740A D (IS=9.499996e-006 N=3.38339 RS=1.432171e-001 CJO=350.00E-12 M=.22336 VJ=.75 ISR=10.010E-21 NR=2 BV=10.055 IBV=.20695 TT=605.62E-9)
.model 1N4741 D (Is=1.566f Rs=1.74 Ikf=0 N=1 Xti=3 Eg=1.11 Cjo=105p M=.4156 Vj=.75 Fc=.5 Isr=1.737n Nr=2 Bv=11 Ibv=92.573m Nbv=1.1098 Ibvl=440.66u Nbvl=.23096 TBv1=672.73u)
.model 1N4742 D (Is=1.773f Rs=2.06 Ikf=0 N=1 Xti=3 Eg=1.11 Cjo=100p M=.3894 Vj=.75 Fc=.5 Isr=1.799n Nr=2 Bv=12 Ibv=89.447m Nbv=1.1527 Ibvl=248.34n Nbvl=.8248 TBv1=700u)
.model 1N4743 D (Is=2.253f Rs=2.678 Ikf=0 N=1 Xti=3 Eg=1.11 Cjo=80p M=.3644 Vj=.75 Fc=.5 Isr=1.87n Nr=2 Bv=13 Ibv=99.671m Nbv=1.1851 Ibvl=8.4078u Nbvl=1.2407 TBv1=846.15u)
.model 1N4744 D (Is=3.142f Rs=3.544 Ikf=0 N=1 Xti=3 Eg=1.11 Cjo=72.5p M=.3282 Vj=.75 Fc=.5 Isr=1.973n Nr=2 Bv=15 Ibv=.14467 Nbv=1.093 Ibvl=.1m Nbvl=1.2722 TBv1=001433.3u)
.model 1N4744A D (IS=4.997600e-024 N=1.6405 RS=0.21797 CJO=260.00E-12 M=.2466 VJ=.46328 ISR=2.247333e-006 NR=2.89714 BV=15.048 IBV=.1296 TT=605.00E-9)
.model 1N4745 D (Is=5.461f Rs=4.974 Ikf=0 N=1 Xti=3 Eg=1.11 Cjo=68p M=.3197 Vj=.75 Fc=.5 Isr=1.982n Nr=2 Bv=16 Ibv=.25684 Nbv=1.0588 Ibvl=1.029m Nbvl=1.0409 TBv1=875u)
.model 1N4746 D (Is=6.994f Rs=5.612 Ikf=0 N=1 Xti=3 Eg=1.11 Cjo=59p M=.2906 Vj=.75 Fc=.5 Isr=2.088n Nr=2 Bv=18 Ibv=.17098 Nbv=1.2072 Ibvl=2.002m Nbvl=1.1457 TBv1=888.89u)
.model 1N4747 D (Is=10.22f Rs=6.585 Ikf=0 N=1 Xti=3 Eg=1.11 Cjo=52p M=.2904 Vj=.75 Fc=.5 Isr=2.029n Nr=2 Bv=20 Ibv=.15934 Nbv=1.2472 Ibvl=211.18u Nbvl=1.9765 TBv1=850u)
.model 1N4748 D (Is=17.49f Rs=7.976 Ikf=0 N=1 Xti=3 Eg=1.11 Cjo=49p M=.2829 Vj=.75 Fc=.5 Isr=2.024n Nr=2 Bv=22 Ibv=.16996 Nbv=1.315 Ibvl=7.0073E-15 Nbvl=1.2735 TBv1=840.91u)
.model 1N4749 D (Is=25.94f Rs=9.006 Ikf=0 N=1 Xti=3 Eg=1.11 Cjo=41p M=.2715 Vj=.75 Fc=.5 Isr=2.052n Nr=2 Bv=24 Ibv=.14951 Nbv=1.3684 Ibvl=164.37u Nbvl=14 TBv1=895.83u)
.model 1N4750 D (Is=62.63f Rs=11.28 Ikf=0 N=1 Xti=3 Eg=1.11 Cjo=40p M=.2906 Vj=.75 Fc=.5 Isr=1.864n Nr=2 Bv=27 Ibv=.13378 Nbv=1.5283 Ibvl=3.4328m Nbvl=2.3046 TBv1=888.89u)
.model 1N4933 D (Is=7.303f Rs=39.41m Ikf=8.427m N=1 Xti=3 Eg=1.11 Cjo=28.09p M=.4422 Vj=.75 Fc=.5 Isr=77.55n Nr=2 TT=53.73n)
.model 1N4934 D (Is=7.303f Rs=39.41m Ikf=8.427m N=1 Xti=3 Eg=1.11 Cjo=28.09p M=.4422 Vj=.75 Fc=.5 Isr=59.55n Nr=2 TT=53.73n)
.model 1N4935 D (Is=7.303f Rs=39.41m Ikf=8.427m N=1 Xti=3 Eg=1.11 Cjo=28.09p M=.4422 Vj=.75 Fc=.5 Isr=50.66n Nr=2 TT=53.73n)
.model 1N4936 D (Is=7.303f Rs=39.41m Ikf=8.427m N=1 Xti=3 Eg=1.11 Cjo=28.09p M=.4422 Vj=.75 Fc=.5 Isr=47.26n Nr=2 TT=53.73n)
.model 1N4937 D (Is=7.303f Rs=39.41m Ikf=8.427m N=1 Xti=3 Eg=1.11 Cjo=28.09p M=.4422 Vj=.75 Fc=.5 Isr=49.4n Nr=2 TT=53.73n)
.model 1N4938 D (Is=2.38E-18 N=1 Rs=.1 Ikf=0 Xti=3 Eg=1.11 Cjo=1p M=.3333 Vj=.75 Fc=.5 Isr=100p Nr=2 Bv=200 Ibv=100u TT=72.13n)
.model 1N4954 D (Is=84.5f N=1 Rs=.1 Ikf=0 Xti=3 Eg=1.11 Cjo=4n M=.3333 Vj=.75 Fc=.5 Isr=75.21u Nr=2 Bv=6.781 Ibv=.1642 TT=144.3n)
.model 1N4955 D (Is=84.5f N=1 Rs=.1 Ikf=0 Xti=3 Eg=1.11 Cjo=4n M=.3333 Vj=.75 Fc=.5 Isr=48.81u Nr=2 Bv=7.469 Ibv=.1056 TT=144.3n)
.model 1N4956 D (Is=84.5f N=1 Rs=.1 Ikf=0 Xti=3 Eg=1.11 Cjo=4n M=.3333 Vj=.75 Fc=.5 Isr=23.81u Nr=2 Bv=8.18 Ibv=.1232 TT=144.3n)
.model 1N4957 D (Is=84.5f N=1 Rs=.1 Ikf=0 Xti=3 Eg=1.11 Cjo=4n M=.3333 Vj=.75 Fc=.5 Isr=11.53u Nr=2 Bv=9.072 Ibv=90.75m TT=144.3n)
.model 1N4958 D (Is=84.5f N=1 Rs=.1 Ikf=0 Xti=3 Eg=1.11 Cjo=4n M=.3333 Vj=.75 Fc=.5 Isr=11.2u Nr=2 Bv=9.984 Ibv=.1089 TT=144.3n)
.model 1N4959 D (Is=84.5f N=1 Rs=.1 Ikf=0 Xti=3 Eg=1.11 Cjo=3.9n M=.3333 Vj=.75 Fc=.5 Isr=4.344u Nr=2 Bv=10.98 Ibv=86.21m TT=144.3n)
.model 1N4960 D (Is=84.5f N=1 Rs=.1 Ikf=0 Xti=3 Eg=1.11 Cjo=3.88p M=.3333 Vj=.75 Fc=.5 Isr=4.239u Nr=2 Bv=11.99 Ibv=.1078 TT=144.3n)
.model 1N4961 D (Is=84.5f N=1 Rs=.1 Ikf=0 Xti=3 Eg=1.11 Cjo=3.9n M=.3333 Vj=.75 Fc=.5 Isr=4.13u Nr=2 Bv=12.99 Ibv=89.19m TT=144.3n)
.model 1N4962 D (Is=84.5f N=1 Rs=.1 Ikf=0 Xti=3 Eg=1.11 Cjo=3.9n M=.3333 Vj=.75 Fc=.5 Isr=1.976u Nr=2 Bv=15 Ibv=.1014 TT=144.3n)
.model 1N4963 D (Is=84.5f N=1 Rs=.1 Ikf=0 Xti=3 Eg=1.11 Cjo=3.9n M=.3333 Vj=.75 Fc=.5 Isr=1.935u Nr=2 Bv=16 Ibv=.1014 TT=144.3n)
.model 1N4964 D (Is=84.5f N=1 Rs=.1 Ikf=0 Xti=3 Eg=1.11 Cjo=3.9n M=.3333 Vj=.75 Fc=.5 Isr=1.865u Nr=2 Bv=18.01 Ibv=.102 TT=144.3n)
.model 1N4965 D (Is=84.5f N=1 Rs=.1 Ikf=0 Xti=3 Eg=1.11 Cjo=3.87n M=.3333 Vj=.75 Fc=.5 Isr=721.9n Nr=2 Bv=20 Ibv=90.43m TT=144.3n)
.model 1N4966 D (Is=84.5f N=1 Rs=.1 Ikf=0 Xti=3 Eg=1.11 Cjo=3.85n M=.3333 Vj=.75 Fc=.5 Isr=700.6n Nr=2 Bv=22.01 Ibv=.1056 TT=144.3n)
.model 1N4967 D (Is=84.5f N=1 Rs=.1 Ikf=0 Xti=3 Eg=1.11 Cjo=3.83n M=.3333 Vj=.75 Fc=.5 Isr=681.6n Nr=2 Bv=24.01 Ibv=.1056 TT=144.3n)
.model 1N4968 D (Is=84.5f N=1 Rs=.1 Ikf=0 Xti=3 Eg=1.11 Cjo=3.8n M=.3333 Vj=.75 Fc=.5 Isr=655.1n Nr=2 Bv=27.01 Ibv=87.68m TT=144.3n)